
 + + + + + + + + + + + + + + + + + + + + + + + + + + + + + + + + + + + + + + + +
 + + + + + + + + + + + + + + + + + + + + + + + + + + + + + + + + + + + + + + + +
 + +                                                                         + +
 + +                      ASPEN PLUS CALCULATION HISTORY                     + +
 + +                                                                         + +
 + + + + + + + + + + + + + + + + + + + + + + + + + + + + + + + + + + + + + + + +
 + + + + + + + + + + + + + + + + + + + + + + + + + + + + + + + + + + + + + + + +

 ASPEN PLUS IS A TRADEMARK OF           HOTLINE:
 ASPEN TECHNOLOGY, INC.                 U.S.A. 888/996-7100
 781/221-6400                           EUROPE (44) 1189-226555

 PLATFORM: WIN-X64                                       FEBRUARY 15, 2025   
 VERSION: 40.0   Build 359                               SATURDAY    
 INSTALLATION:                                           9:43:59 P.M.        

 THIS COPY OF ASPEN PLUS LICENSED TO                                 


      ASPEN PLUS (R) IS A PROPRIETARY PRODUCT OF ASPEN TECHNOLOGY, INC.
      (ASPENTECH), AND MAY BE USED ONLY UNDER AGREEMENT WITH ASPENTECH.
      RESTRICTED RIGHTS LEGEND:  USE, REPRODUCTION, OR DISCLOSURE BY THE
      U.S. GOVERNMENT IS SUBJECT TO RESTRICTIONS SET FORTH IN 
      (i) FAR 52.227-14, Alt. III, (ii) FAR 52.227-19, (iii) DFARS 
      252.227-7013(c)(1)(ii), or (iv) THE ACCOMPANYING LICENSE AGREEMENT,
      AS APPLICABLE. FOR PURPOSES OF THE FAR, THIS SOFTWARE SHALL BE DEEMED
      TO BE "UNPUBLISHED" AND LICENSED WITH DISCLOSURE PROHIBITIONS.
      CONTRACTOR/SUBCONTRACTOR: ASPEN TECHNOLOGY, INC. 20 CROSBY DRIVE,
      BEDFORD, MA 01730.
 *** INPUT SUMMARY ***

 >>CURRENT RUN

   ORIGINAL RUN                           FEBRUARY 15, 2025   
   9:43:59 P.M.                           SATURDAY    
   INPUT FILE: _1237ygu.inm
   RUN ID : _1237ygu
          1    ;
          2    ;Input file created by Aspen Plus Rel. 40.0 at 21:43:58 Sat Feb 15, 2025
          3    ;Directory E:\project\lsj_y_CH3OH_C\MTC_MEM  Runid DT_WITH_MR_OPT_BOILER
          4    ;
          5
          6
          7    DYNAMICS
          8        DYNAMICS RESULTS=ON
          9
         10    IN-UNITS SI MOLE-FLOW='mol/sec' PRESSURE=bar PDROP=bar  &
         11            SHORT-LENGTH=mm
         12
         13    DEF-STREAMS CONVEN ALL
         14
         15    SIM-OPTIONS MASS-BAL-CHE=YES FLASH-TOL=1E-006 PARADIGM=SM
         16
         17    MODEL-OPTION
         18
         19    DESCRIPTION "
         20        Chemical Simulation with Metric Units :
         21        C, bar, kg/hr, kmol/hr, Gcal/hr, cum/hr.
         22
         23        Property Method: NRTL
         24
         25        Flow basis for input: Mole
         26
         27        Stream report composition: Mole flow
         28        "
         29
         30    DATABANKS 'APV140 PURE40' / 'APV140 AQUEOUS' / 'APV140 SOLIDS' &
         31             / 'APV140 INORGANIC' / NOASPENPCD
         32
         33    PROP-SOURCES 'APV140 PURE40' / 'APV140 AQUEOUS' /  &
         34            'APV140 SOLIDS' / 'APV140 INORGANIC'
         35
         36    COMPONENTS
         37        O2 O2 /
         38        H2 H2 /
         39        N2 N2 /
         40        CO CO /
         41        CO2 CO2 /
         42        NH3 H3N /
         43        H2O H2O /
         44        CH4 CH4 /
         45        C2H6 C2H6 /
         46        C3H8 C3H8 /
         47        I-C4 C4H10-2 /
         48        N-C4 C4H10-1 /
         49        MEOH CH4O /
         50        ETOH C2H6O-2 /
         51        DME C2H6O-1 /
         52        AR AR
         53
         54    COMP-GROUP CG-1 SUBSTREAM=MIXED COMPS=H2 CO2 MEOH H2O CO
         55
         56    SOLVE
         57        PARAM METHOD=EO
         58        RUN-MODE MODE=SIM
         59
         60    FLOWSHEET
         61        BLOCK B1 IN=S5 OUT=S3 S4
         62        BLOCK B3 IN=S6 OUT=S7 S8 S1
         63        BLOCK B4 IN=S18 OUT=S5 S6
         64        BLOCK B10 IN=S11 S1 OUT=S14 S2
         65        BLOCK B11 IN=S2 OUT=S15 S16
         66        BLOCK B2 IN=S9 S10 OUT=S12 S13
         67
         68    PROPERTIES SRK FREE-WATER=STEAMNBS SOLU-WATER=3 TRUE-COMPS=YES
         69        PROPERTIES CPA / NRTL / NRTL-RK / PC-SAFT
         70
         71    PROP-DATA REVIEW-1
         72        IN-UNITS SI MOLE-FLOW='mol/sec' PRESSURE=bar TEMPERATURE=C  &
         73            PDROP=bar SHORT-LENGTH=mm
         74        PROP-LIST CPAAT
         75        PVAL NH3 3
         76        PVAL H2O 4
         77        PVAL ETOH 2
         78        PROP-LIST CPAAT / CPAM / CPAAU / CPAAV
         79        PVAL MEOH 2 / 1.098847630 / -261.2583700 / 12.68234240
         80
         81    PROP-DATA NRTL-1
         82        IN-UNITS MET VOLUME-FLOW='cum/hr' ENTHALPY-FLO='Gcal/hr'  &
         83            HEAT-TRANS-C='kcal/hr-sqm-K' PRESSURE=bar TEMPERATURE=C  &
         84            VOLUME=cum DELTA-T=C HEAD=meter MASS-DENSITY='kg/cum'  &
         85            MOLE-ENTHALP='kcal/mol' MASS-ENTHALP='kcal/kg'  &
         86            MOLE-VOLUME='cum/kmol' HEAT=Gcal MOLE-CONC='mol/l'  &
         87            PDROP=bar SHORT-LENGTH=mm
         88        PROP-LIST NRTL
         89        BPVAL NH3 H2O 9.612100000 -3232.815900 .3000000000 0.0 0.0  &
         90            0.0 10.00000000 91.50000000
         91        BPVAL H2O NH3 -6.268400000 1525.454300 .3000000000 0.0 0.0  &
         92            0.0 10.00000000 91.50000000
         93        BPVAL H2O MEOH 2.732200000 -617.2687000 .3000000000 0.0  &
         94            0.0 0.0 24.99000000 100.0000000
         95        BPVAL MEOH H2O -.6930000000 172.9871000 .3000000000 0.0  &
         96            0.0 0.0 24.99000000 100.0000000
         97        BPVAL N-C4 MEOH 0.0 551.7243000 .3000000000 0.0 0.0 0.0  &
         98            50.00000000 50.00000000
         99        BPVAL MEOH N-C4 0.0 380.4331000 .3000000000 0.0 0.0 0.0  &
        100            50.00000000 50.00000000
        101        BPVAL H2O ETOH 3.457800000 -586.0809000 .3000000000 0.0  &
        102            0.0 0.0 24.99000000 100.0000000
        103        BPVAL ETOH H2O -.8009000000 246.1800000 .3000000000 0.0  &
        104            0.0 0.0 24.99000000 100.0000000
        105        BPVAL MEOH ETOH 4.711900000 -1162.294900 .3000000000 0.0  &
        106            0.0 0.0 20.00000000 78.40000000
        107        BPVAL ETOH MEOH -2.312700000 483.8436000 .3000000000 0.0  &
        108            0.0 0.0 20.00000000 78.40000000
        109        BPVAL MEOH DME 0.0 653.0063000 .2951000000 0.0 0.0 0.0  &
        110            0.0 0.0
        111        BPVAL DME MEOH 0.0 -18.93720000 .2951000000 0.0 0.0 0.0  &
        112            0.0 0.0
        113
        114    PROP-DATA PCSKIJ-1
        115        IN-UNITS SI MOLE-FLOW='mol/sec' PRESSURE=bar TEMPERATURE=C  &
        116            PDROP=bar SHORT-LENGTH=mm
        117        PROP-LIST PCSKIJ
        118        BPVAL H2 C2H6 -1.001900000 .5256000000 0.0 0.0 0.0  &
        119            25.00000000
        120        BPVAL C2H6 H2 -1.001900000 .5256000000 0.0 0.0 0.0  &
        121            25.00000000
        122        BPVAL H2 C3H8 -.1903000000 -.0101000000 0.0 0.0 0.0  &
        123            25.00000000
        124        BPVAL C3H8 H2 -.1903000000 -.0101000000 0.0 0.0 0.0  &
        125            25.00000000
        126        BPVAL CO2 CH4 .0650000000 0.0 0.0 0.0 0.0 25.00000000
        127        BPVAL CH4 CO2 .0650000000 0.0 0.0 0.0 0.0 25.00000000
        128        BPVAL CO2 C3H8 .1090000000 0.0 0.0 0.0 0.0 25.00000000
        129        BPVAL C3H8 CO2 .1090000000 0.0 0.0 0.0 0.0 25.00000000
        130        BPVAL CO2 N-C4 .1200000000 0.0 0.0 0.0 0.0 25.00000000
        131        BPVAL N-C4 CO2 .1200000000 0.0 0.0 0.0 0.0 25.00000000
        132        BPVAL CO2 MEOH 0.0 .0245660000 -.0144960000 0.0 0.0  &
        133            25.00000000
        134        BPVAL MEOH CO2 0.0 .0245660000 -.0144960000 0.0 0.0  &
        135            25.00000000
        136        BPVAL CH4 I-C4 .0280000000 0.0 0.0 0.0 0.0 25.00000000
        137        BPVAL I-C4 CH4 .0280000000 0.0 0.0 0.0 0.0 25.00000000
        138        BPVAL CH4 N-C4 .0220000000 0.0 0.0 0.0 0.0 25.00000000
        139        BPVAL N-C4 CH4 .0220000000 0.0 0.0 0.0 0.0 25.00000000
        140        BPVAL C3H8 N-C4 3.00000000E-3 0.0 0.0 0.0 0.0 25.00000000
        141        BPVAL N-C4 C3H8 3.00000000E-3 0.0 0.0 0.0 0.0 25.00000000
        142        BPVAL I-C4 MEOH .0500000000 0.0 0.0 0.0 0.0 25.00000000
        143        BPVAL MEOH I-C4 .0500000000 0.0 0.0 0.0 0.0 25.00000000
        144        BPVAL N-C4 ETOH .0280000000 0.0 0.0 0.0 0.0 25.00000000
        145        BPVAL ETOH N-C4 .0280000000 0.0 0.0 0.0 0.0 25.00000000
        146
        147    PROP-DATA SRKKIJ-1
        148        IN-UNITS MET VOLUME-FLOW='cum/hr' ENTHALPY-FLO='Gcal/hr'  &
        149            HEAT-TRANS-C='kcal/hr-sqm-K' PRESSURE=bar TEMPERATURE=C  &
        150            VOLUME=cum DELTA-T=C HEAD=meter MASS-DENSITY='kg/cum'  &
        151            MOLE-ENTHALP='kcal/mol' MASS-ENTHALP='kcal/kg'  &
        152            MOLE-VOLUME='cum/kmol' HEAT=Gcal MOLE-CONC='mol/l'  &
        153            PDROP=bar SHORT-LENGTH=mm
        154        PROP-LIST SRKKIJ
        155        BPVAL H2 CH4 -.0244851000 0.0 0.0 -273.1500000 726.8500000
        156        BPVAL CH4 H2 -.0244851000 0.0 0.0 -273.1500000 726.8500000
        157        BPVAL H2 C2H6 .0163828000 0.0 0.0 -273.1500000 726.8500000
        158        BPVAL C2H6 H2 .0163828000 0.0 0.0 -273.1500000 726.8500000
        159        BPVAL H2 C3H8 .1014650000 0.0 0.0 -273.1500000 726.8500000
        160        BPVAL C3H8 H2 .1014650000 0.0 0.0 -273.1500000 726.8500000
        161        BPVAL CO CO2 -.0154400000 0.0 0.0 -273.1500000 726.8500000
        162        BPVAL CO2 CO -.0154400000 0.0 0.0 -273.1500000 726.8500000
        163        BPVAL NH3 C3H8 .1612000000 0.0 0.0 -273.1500000  &
        164            726.8500000
        165        BPVAL C3H8 NH3 .1612000000 0.0 0.0 -273.1500000  &
        166            726.8500000
        167        BPVAL NH3 N-C4 .1659000000 0.0 0.0 -273.1500000  &
        168            726.8500000
        169        BPVAL N-C4 NH3 .1659000000 0.0 0.0 -273.1500000  &
        170            726.8500000
        171        BPVAL CH4 C2H6 4.21992000E-4 0.0 0.0 -273.1500000  &
        172            726.8500000
        173        BPVAL C2H6 CH4 4.21992000E-4 0.0 0.0 -273.1500000  &
        174            726.8500000
        175        BPVAL CH4 C3H8 .0241509000 0.0 0.0 -273.1500000  &
        176            726.8500000
        177        BPVAL C3H8 CH4 .0241509000 0.0 0.0 -273.1500000  &
        178            726.8500000
        179        BPVAL CH4 I-C4 .0460715000 0.0 0.0 -273.1500000  &
        180            726.8500000
        181        BPVAL I-C4 CH4 .0460715000 0.0 0.0 -273.1500000  &
        182            726.8500000
        183        BPVAL CH4 N-C4 .0226440000 0.0 0.0 -273.1500000  &
        184            726.8500000
        185        BPVAL N-C4 CH4 .0226440000 0.0 0.0 -273.1500000  &
        186            726.8500000
        187        BPVAL C2H6 C3H8 1.69511000E-3 0.0 0.0 -273.1500000  &
        188            726.8500000
        189        BPVAL C3H8 C2H6 1.69511000E-3 0.0 0.0 -273.1500000  &
        190            726.8500000
        191        BPVAL C2H6 I-C4 5.51229000E-3 0.0 0.0 -273.1500000  &
        192            726.8500000
        193        BPVAL I-C4 C2H6 5.51229000E-3 0.0 0.0 -273.1500000  &
        194            726.8500000
        195        BPVAL C2H6 N-C4 5.32194000E-3 0.0 0.0 -273.1500000  &
        196            726.8500000
        197        BPVAL N-C4 C2H6 5.32194000E-3 0.0 0.0 -273.1500000  &
        198            726.8500000
        199        BPVAL C3H8 I-C4 -2.9093200E-3 0.0 0.0 -273.1500000  &
        200            726.8500000
        201        BPVAL I-C4 C3H8 -2.9093200E-3 0.0 0.0 -273.1500000  &
        202            726.8500000
        203        BPVAL C3H8 N-C4 -2.0759400E-3 0.0 0.0 -273.1500000  &
        204            726.8500000
        205        BPVAL N-C4 C3H8 -2.0759400E-3 0.0 0.0 -273.1500000  &
        206            726.8500000
        207        BPVAL I-C4 N-C4 -3.7749700E-3 0.0 0.0 -273.1500000  &
        208            726.8500000
        209        BPVAL N-C4 I-C4 -3.7749700E-3 0.0 0.0 -273.1500000  &
        210            726.8500000
        211        BPVAL H2 N-C4 .3911000000 0.0 0.0 1.00000000000000e+35  &
        212            1.00000000000000e+35
        213        BPVAL N-C4 H2 .3911000000 0.0 0.0 1.00000000000000e+35  &
        214            1.00000000000000e+35
        215        BPVAL H2O MEOH -0.0504784863 -6.09021586E-05 0.0  &
        216            -273.1500000 726.8500000
        217        BPVAL MEOH H2O -0.0504784863 -6.09021586E-05 0.0  &
        218            -273.1500000 726.8500000
        219        BPVAL H2O ETOH -0.108972503 9.48080549E-05 0.0 -273.1500000  &
        220            726.8500000
        221        BPVAL ETOH H2O -0.108972503 9.48080549E-05 0.0 -273.1500000  &
        222            726.8500000
        223        BPVAL MEOH ETOH 0.0645026427 -0.000189579302 0.0  &
        224            -273.1500000 726.8500000
        225        BPVAL ETOH MEOH 0.0645026427 -0.000189579302 0.0  &
        226            -273.1500000 726.8500000
        227
        228    PROP-DATA SRKLIJ-1
        229        IN-UNITS MET VOLUME-FLOW='cum/hr' ENTHALPY-FLO='Gcal/hr'  &
        230            HEAT-TRANS-C='kcal/hr-sqm-K' PRESSURE=bar TEMPERATURE=C  &
        231            VOLUME=cum DELTA-T=C HEAD=meter MASS-DENSITY='kg/cum'  &
        232            MOLE-ENTHALP='kcal/mol' MASS-ENTHALP='kcal/kg'  &
        233            MOLE-VOLUME='cum/kmol' HEAT=Gcal MOLE-CONC='mol/l'  &
        234            PDROP=bar SHORT-LENGTH=mm
        235        PROP-LIST SRKLIJ
        236        BPVAL ETOH H2O 0.0979766833 6.19705331E-06 0.0 -273.1500000  &
        237            726.8500000
        238        BPVAL H2O ETOH 0.0390667079 -0.000165051282 0.0  &
        239            -273.1500000 726.8500000
        240        BPVAL MEOH H2O -0.00502994649 -6.09021586E-05 0.0  &
        241            -273.150000 726.850000
        242        BPVAL H2O MEOH 0.0 0.0 0.0 -273.150000 726.850000
        243        BPVAL ETOH MEOH 0.244321895 -0.000669146416 0.0 -273.150000  &
        244            726.850000
        245        BPVAL MEOH ETOH 0.0 0.0 0.0 -273.150000 726.850000
        246
        247    STREAM S9
        248        SUBSTREAM MIXED TEMP=378.802 PRES=49.91893611
        249        MOLE-FLOW H2 0.135784643 / CO 0.006827449 / CO2  &
        250            0.029099122 / H2O 0.007858875 / MEOH 0.008318614
        251
        252    STREAM S10
        253        SUBSTREAM MIXED TEMP=308.622 PRES=1.2
        254        MOLE-FLOW H2 1.09007E-08 / CO 8.6121E-10 / CO2  &
        255            1.96425E-05 / H2O 0.007728168 / MEOH 0.007645372
        256
        257    STREAM S11
        258        SUBSTREAM MIXED TEMP=500.798527 PRES=48.
        259        MOLE-FLOW H2O 0.3
        260
        261    STREAM S18
        262        SUBSTREAM MIXED TEMP=358.11622984 PRES=1.2
        263        MOLE-FLOW O2 0. / H2 7.7615356E-08 / N2 0. / CO  &
        264            1.3989170E-08 / CO2 3.7852969E-05 / NH3 0. / H2O  &
        265            0.00108207368 / CH4 0. / C2H6 0. / C3H8 0. / I-C4  &
        266            0. / N-C4 0. / MEOH 0.00788113728 / ETOH 0. / DME  &
        267            0. / AR 0.
        268
        269    BLOCK B11 FLASH2
        270        PARAM PRES=0. DUTY=0.
        271
        272    BLOCK B2 HEATX
        273        PARAM DELT-COLD=20. CALC-TYPE=DESIGN U-OPTION=PHASE  &
        274            F-OPTION=CONSTANT CALC-METHOD=SHORTCUT
        275        FEEDS HOT=S9 COLD=S10
        276        OUTLETS-HOT S12
        277        OUTLETS-COLD S13
        278        HOT-SIDE DP-OPTION=CONSTANT DPPARMOPT=NO
        279        COLD-SIDE DP-OPTION=CONSTANT DPPARMOPT=NO
        280        TQ-PARAM CURVE=YES
        281
        282    BLOCK B10 HEATX
        283        PARAM DUTY=1. CALC-TYPE=DESIGN U-OPTION=PHASE  &
        284            F-OPTION=CONSTANT CALC-METHOD=SHORTCUT
        285        FEEDS HOT=S11 COLD=S1
        286        OUTLETS-HOT S14
        287        OUTLETS-COLD S2
        288        HOT-SIDE DP-OPTION=CONSTANT DPPARMOPT=NO
        289        COLD-SIDE DP-OPTION=CONSTANT DPPARMOPT=NO
        290        TQ-PARAM CURVE=YES
        291
        292    BLOCK B1 DSTWU
        293        PARAM LIGHTKEY=MEOH RECOVL=0.999 HEAVYKEY=H2O RECOVH=0.001  &
        294            PTOP=1. PBOT=1.2 RDV=1.0 NSTAGE=10 PLOT=YES
        295        PLOT LOWER=10 UPPER=30 INCR=1
        296
        297    BLOCK B3 RADFRAC
        298        PARAM NSTAGE=18 ALGORITHM=STANDARD MAXOL=25 DAMPING=NONE
        299        PARAM2
        300        COL-CONFIG CONDENSER=PARTIAL-V
        301        FEEDS S6 15
        302        PRODUCTS S7 1 V / S8 18 L
        303        PSEUDO-STREA S1 18 PHASE=R STATE=INLET
        304        P-SPEC 1 1.
        305        COL-SPECS D:F=0.49350925 DP-COL=0.2 MOLE-RR=0.921768
        306        SPEC 1 MOLE-RECOV 0.995 COMPS=MEOH STREAMS=S7  &
        307            BASE-STREAMS=S6 SPEC-DESCRIP="Mole recovery, 0.995"
        308        VARY 1 MOLE-RR 0.5 4. 0.01
        309
        310    BLOCK B4 DUPL
        311
        312    EO-CONV-OPTI
        313        PARAM SOLVER=DMO HOMOTOPY=NO
        314        DMO-PARAMS DEFAULT CREEPITER=15 CREEPSIZE=0.01
        315
        316    CALCULATOR C-1
        317        DEFINE QCALC BLOCK-VAR BLOCK=B3 VARIABLE=REB-DUTY  &
        318            SENTENCE=RESULTS UOM="Watt"
        319        DEFINE DUTY BLOCK-VAR BLOCK=B10 VARIABLE=DUTY  &
        320            SENTENCE=PARAM UOM="Watt"
        321    F      DUTY = QCALC
        322        READ-VARS QCALC
        323        WRITE-VARS DUTY
        324
        325    SENSITIVITY S-1
        326        DEFINE HD BLOCK-VAR BLOCK=B3 VARIABLE=REB-DUTY  &
        327            SENTENCE=RESULTS UOM="Watt"
        328        TABULATE 1 "HD"
        329        VARY BLOCK-VAR BLOCK=B3 VARIABLE=STAGE SENTENCE=FEEDS  &
        330            ID1=S6
        331        RANGE OPT-LIST=RANGE LOWER="9" UPPER="17" INCR="1"
        332
        333    CONV-OPTIONS
        334        PARAM TOL=5E-05 TRACEOPT=CUTOFF
        335        WEGSTEIN MAXIT=5000
        336
        337    STREAM-REPOR MOLEFLOW MASSFLOW MOLEFRAC MASSFRAC
        338
        339    PROPERTY-REP PCES PROP-DATA DFMS NOPARAM-PLUS
        340
        341    REACTIONS MEOH-SYN GENERAL
        342        PARAM NTERM-ADS=4
        343        REAC-DATA 1 NAME=RWGS REAC-CLASS=LHHW PHASE=V  &
        344            CBASIS=PARTIALPRES RBASIS=CAT-WT REVERSIBLE=YES  &
        345            REV-METH=USER-SPEC PRES-UNIT="BAR"
        346        REAC-DATA 2 NAME=MEOH-SYN REAC-CLASS=LHHW PHASE=V  &
        347            CBASIS=PARTIALPRES RBASIS=CAT-WT REVERSIBLE=YES  &
        348            REV-METH=USER-SPEC PRES-UNIT="BAR"
        349        RATE-CON 1 PRE-EXP=1446000000. ACT-ENERGY=1.22600000E+8
        350        RATE-CON 2 PRE-EXP=0.0001749 ACT-ENERGY=-4.4450000E+7
        351        STOIC 1 MIXED CO2 -1. / H2 -1. / CO 1. / H2O 1.
        352        STOIC 2 MIXED CO2 -1. / H2 -3. / MEOH 1. / H2O 1.
        353        DFORCE-EXP 1 MIXED CO2 1.
        354        DFORCE-EXP 2 MIXED CO2 1. / MIXED H2 1.
        355        DFORCE-EXP-2 1 MIXED H2 -1. / MIXED CO 1. / MIXED H2O  &
        356            1.
        357        DFORCE-EXP-2 2 MIXED H2 -2. / MIXED MEOH 1. / MIXED  &
        358            H2O 1.
        359        DFORCE-EQ-1 REACNO=1 A=0. B=0. / REACNO=2 A=0.
        360        DFORCE-EQ-2 REACNO=1 A=-4.671945154 B=4773.258898 /  &
        361            REACNO=2 A=24.3889813 B=-7059.72589
        362        ADSORP-EXP REACNO=1 CID=H2O SSID=MIXED EXPONENT=0. 1. 0.  &
        363            1. / REACNO=1 CID=H2 SSID=MIXED EXPONENT=0. -1. 0.5  &
        364            0. / REACNO=2 CID=H2O SSID=MIXED EXPONENT=0. 1. 0.  &
        365            1. / REACNO=2 CID=H2 SSID=MIXED EXPONENT=0. -1. 0.5  &
        366            0.
        367        ADSORP-EQTER REACNO=1 TERM= 1 A=0. / REACNO=1 TERM= 2  &
        368            A=8.147108741 B=0. / REACNO=1 TERM= 3 A=-0.691249907  &
        369            B=2066.174348 / REACNO=1 TERM= 4 A=-23.43827453  &
        370            B=14928.19686 / REACNO=2 TERM= 1 A=0. / REACNO=2  &
        371            TERM= 2 A=8.147108741 B=0. / REACNO=2 TERM= 3  &
        372            A=-0.691249907 B=2066.174348 / REACNO=2 TERM= 4  &
        373            A=-23.43827453 B=14928.19686
        374        ADSORP-POW REACNO=1 EXPONENT=1. / REACNO=2 EXPONENT=3.
        375        ACT-VAL ACTIVITY
        376        SUBOBJECTS ACTIVITY = ACTIVITY
        377        REAC-ACT 1 ACTIVITY=ACTIVITY / 2 ACTIVITY=ACTIVITY
        378    ;
        379    ;
        380    ;
        381    ;
        382    ;
 *** INPUT TRANSLATOR MESSAGES ***

  *** THIS RUN USES THE PROPERTIES ENTERPRISE DATABASE ***
      SQLLOCALDB.APESV140 : (DATAVERSION - 40.0.0.13)                         
      SQLLOCALDB.APV140 : (DATAVERSION - 40.0.0.13)                           
      SQLLOCALDB.FACTV140 : (DATAVERSION - 40.0.0.12)                         
      SQLLOCALDB.NISTV140 : (DATAVERSION - 40.0.0.12)                         
 
 CALCULATOR BLOCK: C-1 WILL BE INTERPRETED 
 SENSITIVITY BLOCK: S-1 WILL BE INTERPRETED 
 

 PDF updated                                                                      TIME =      1.85

 *** CALCULATION TRACE ***


 *** FLOWSHEET ANALYSIS MESSAGES ***

 FLOWSHEET CONNECTIVITY BY STREAMS       

   STREAM     SOURCE     DEST           STREAM     SOURCE     DEST
   S18        ----       B4             S11        ----       B10     
   S10        ----       B2             S9         ----       B2      
   S3         B1         ----           S4         B1         ----    
   S7         B3         ----           S8         B3         ----    
   S1         B3         B10            S5         B4         B1      
   S6         B4         B3             S14        B10        ----    
   S2         B10        B11            S15        B11        ----    
   S16        B11        ----           S12        B2         ----    
   S13        B2         ----                                         

 FLOWSHEET CONNECTIVITY BY BLOCKS        

   BLOCK        INLETS                         OUTLETS
   B1           S5                             S3 S4                       
   B3           S6                             S7 S8 S1                    
   B4           S18                            S5 S6                       
   B10          S11 S1                         S14 S2                      
   B11          S2                             S15 S16                     
   B2           S9 S10                         S12 S13                     

      COMPUTATION ORDER FOR THE FLOWSHEET IS:
      B2 B4 B1 
      S-1 B3 
      (RETURN S-1) 
      C-1 B10 B11 

Calculations begin                                                              time      1.04


 SIMULATION CALCULATIONS BEGIN                                                    TIME =      1.04

      ENTHALPY CALCULATION FOR INLET STREAM S9 OF BLOCK B2                        TIME =      1.04
      KODE = 2  NTRIAL =   7  T = 378.8020  P = 4.991894E+06  V = 0.969910      Q =  0.00000    

      ENTHALPY CALCULATION FOR INLET STREAM S10 OF BLOCK B2                       TIME =      1.04
      KODE = 2  NTRIAL =   4  T = 308.6220  P =  120000.      V =  0.00000      Q =  0.00000    

      UOS BLOCK B2       MODEL: HEATX                                             TIME =      1.04
      SPECIFICATION: COLD APPROACH TEMP    20.000    
      FLOW TYPE:     COUNTERCURRENT  
      HOT:  TIN=  378.80  PIN=0.49919E+07   TOUT=  346.46  POUT=0.49919E+07
      COLD: TIN=  308.62  PIN=0.12000E+06   TOUT=  358.80  POUT=0.12000E+06
                              DUTY= 466.25    

      ENTHALPY CALCULATION FOR INLET STREAM S18 OF BLOCK B4                       TIME =      1.04
      KODE = 2  NTRIAL =   5  T = 358.1162  P =  120000.      V =  1.00000      Q =  0.00000    

      UOS BLOCK B4       MODEL: DUPL                                              TIME =      1.04

      UOS BLOCK B1       MODEL: DSTWU                                             TIME =      1.04
       TD =   338.1    ,  TB =   377.7    ,  RMIN =  0.3600    ,  RACT =  0.5445    
       MIN STAGES =   10.04    , ACT STAGES =   20.08    
       ACT. # OF RECT. STAGES =   12.35    
       REBOILER DUTY =   121.3    
       FEED QUALITY =    1.014    

 SENSITIVITY BLOCK S-1      ROW     1 EVALUATION BEGINS                           TIME =      1.04
      VARY VARIABLES:   9.0000    

      UOS BLOCK B3       MODEL: RADFRAC                                           TIME =      1.04

       Convergence iterations:
         OL   ML   IL     Err/Tol
          1    1   10      12.872    
          2    1   10      6.0112    
          3    7   22      3.2006    

  *** SEVERE ERROR WHILE EXECUTING UNIT OPERATIONS BLOCK: "B3" (MODEL:          
      "RADFRAC")                                               (UDL03.3)        
      THE FOLLOWING STAGES DRIED UP (VAPOR OR LIQUID FLOW APPROACHES 0):        
        9   18                                                                  
      A LIMIT OF  0.10000E-04 * SUM OF FEEDS WAS IMPOSED ON THE FLOW RATES      
      OR A LIMIT OF  0.10000E-04 WAS IMPOSED ON THE STAGE V/L OR L/V RATIO.     

      RESULTS FOR MANIPULATED VARIABLES:
      VARIABLE     FINAL VALUE    LOWER BOUND    UPPER BOUND
         1         0.96177        0.50000         4.0000    

 SENSITIVITY BLOCK S-1      ROW     2 EVALUATION BEGINS                           TIME =      1.04
      VARY VARIABLES:   10.000    

      UOS BLOCK B3       MODEL: RADFRAC                                           TIME =      1.04

       Convergence iterations:
         OL   ML   IL     Err/Tol
          1    7   21      2.5366    
          2    5   17      2.3406    
          3    5   19      2.4062    
          4    5   20      2.9351    
          5    5   15      2.9519    
          6    5   16      4.0052    
          7    5   15      5.1579    
          8    5   15      5.5691    
          9    5   15      5.6201    
         10    5   10      5.5014    
         11    5   14      5.3077    
         12    5   11      5.0855    
         13    5   10      4.8576    
         14    5   10      4.6347    
         15    5   10      4.4215    
         16    5   10      4.2199    
         17    5   10      4.0301    
         18    5   10      3.8520    
         19    5   10      3.6848    
         20    5   10      3.5279    
         21    5   10      3.3806    
         22    5   10      3.2422    
         23    5   10      3.1120    
         24    5   10      2.9895    
         25    5   10      2.8740    

  **  ERROR WHILE EXECUTING UNIT OPERATIONS BLOCK: "B3" (MODEL: "RADFRAC")      
                                                               (UDL03.1)        
      RADFRAC NOT CONVERGED IN  25 OUTSIDE LOOP ITERATIONS.                     

      RESULTS FOR MANIPULATED VARIABLES:
      VARIABLE     FINAL VALUE    LOWER BOUND    UPPER BOUND
         1          1.9035        0.50000         4.0000    

 SENSITIVITY BLOCK S-1      ROW     3 EVALUATION BEGINS                           TIME =      1.05
      VARY VARIABLES:   11.000    

      UOS BLOCK B3       MODEL: RADFRAC                                           TIME =      1.05

       Convergence iterations:
         OL   ML   IL     Err/Tol
          1    7   17      2.1504    
          2    5   11      2.0289    
          3    5   10      2.0043    
          4    5   10      1.9736    
          5    5   10      1.9280    
          6    5   10      1.8734    
          7    5   10      1.8152    
          8    5   10      1.7566    
          9    5   10      1.6993    
         10    5   10      1.6439    
         11    5   10      1.5908    
         12    5   10      1.5401    
         13    5   10      1.4917    
         14    5   10      1.4455    
         15    5   10      1.4014    
         16    5   10      1.3592    
         17    5   10      1.3190    
         18    5   10      1.2805    
         19    5   10      1.2437    
         20    5   10      1.2085    
         21    5   10      1.1747    
         22    5   10      1.1424    
         23    5   10      1.1113    
         24    5   10      1.0816    
         25    5   10      1.0530    

  **  ERROR WHILE EXECUTING UNIT OPERATIONS BLOCK: "B3" (MODEL: "RADFRAC")      
                                                               (UDL03.1)        
      RADFRAC NOT CONVERGED IN  25 OUTSIDE LOOP ITERATIONS.                     

      RESULTS FOR MANIPULATED VARIABLES:
      VARIABLE     FINAL VALUE    LOWER BOUND    UPPER BOUND
         1          2.9035        0.50000         4.0000    

 SENSITIVITY BLOCK S-1      ROW     4 EVALUATION BEGINS                           TIME =      1.06
      VARY VARIABLES:   12.000    

      UOS BLOCK B3       MODEL: RADFRAC                                           TIME =      1.06

       Convergence iterations:
         OL   ML   IL     Err/Tol
          1    7   16      1.5142    
          2    5   11      1.0794    
          3    5   10     0.90431    
          4    5   10     0.82888    
          5    5   10     0.78853    
          6    5   10     0.76101    
          7    5   10     0.73883    
          8    5   10     0.71927    
          9    5   10     0.70124    
         10    5   10     0.68424    
         11    5   10     0.66805    
         12    5   10     0.65251    
         13    5   10     0.63756    
         14    5   10     0.62315    
         15    5   10     0.60923    
         16    5   10     0.59578    
         17    5   10     0.58278    
         18    5   10     0.57021    
         19    5   10     0.55804    
         20    5   10     0.54625    
         21    5   10     0.53484    
         22    5   10     0.52379    
         23    5   10     0.51308    
         24    5   10     0.50269    
         25    5   10     0.49262    

  **  ERROR WHILE EXECUTING UNIT OPERATIONS BLOCK: "B3" (MODEL: "RADFRAC")      
                                                               (UDL03.1)        
      OUTSIDE LOOP TOLERANCE WAS SATISFIED BUT DESIGN SPEC ITERATION            
      (MIDDLE LOOP) FAILED TO CONVERGE.                                         

      RESULTS FOR MANIPULATED VARIABLES:
      VARIABLE     FINAL VALUE    LOWER BOUND    UPPER BOUND
         1          3.9035        0.50000         4.0000    

 SENSITIVITY BLOCK S-1      ROW     5 EVALUATION BEGINS                           TIME =      1.06
      VARY VARIABLES:   13.000    

      UOS BLOCK B3       MODEL: RADFRAC                                           TIME =      1.06

       Convergence iterations:
         OL   ML   IL     Err/Tol
          1    5   11      1.2747    
          2    5   11     0.20246    
          3    5    9     0.28054    
          4    2    3     0.13972    

  **  ERROR WHILE EXECUTING UNIT OPERATIONS BLOCK: "B3" (MODEL: "RADFRAC")      
                                                               (UDL03.5)        
      DESIGN SPEC IS NOT SATISFIED BECAUSE ONE OR MORE MANIPULATED              
      VARIABLE IS AT ITS BOUND.                                                 

      RESULTS FOR MANIPULATED VARIABLES:
      VARIABLE     FINAL VALUE    LOWER BOUND    UPPER BOUND
         1          4.0000        0.50000         4.0000    

 SENSITIVITY BLOCK S-1      ROW     6 EVALUATION BEGINS                           TIME =      1.06
      VARY VARIABLES:   14.000    

      UOS BLOCK B3       MODEL: RADFRAC                                           TIME =      1.06

       Convergence iterations:
         OL   ML   IL     Err/Tol
          1    4    9      1.2742    
          2    2    4     0.61794E-02

  **  ERROR WHILE EXECUTING UNIT OPERATIONS BLOCK: "B3" (MODEL: "RADFRAC")      
                                                               (UDL03.5)        
      DESIGN SPEC IS NOT SATISFIED BECAUSE ONE OR MORE MANIPULATED              
      VARIABLE IS AT ITS BOUND.                                                 

      RESULTS FOR MANIPULATED VARIABLES:
      VARIABLE     FINAL VALUE    LOWER BOUND    UPPER BOUND
         1          4.0000        0.50000         4.0000    

 SENSITIVITY BLOCK S-1      ROW     7 EVALUATION BEGINS                           TIME =      1.07
      VARY VARIABLES:   15.000    

      UOS BLOCK B3       MODEL: RADFRAC                                           TIME =      1.07

       Convergence iterations:
         OL   ML   IL     Err/Tol
          1    3    8      1.2722    
          2    2    4     0.57325E-02

  **  ERROR WHILE EXECUTING UNIT OPERATIONS BLOCK: "B3" (MODEL: "RADFRAC")      
                                                               (UDL03.5)        
      DESIGN SPEC IS NOT SATISFIED BECAUSE ONE OR MORE MANIPULATED              
      VARIABLE IS AT ITS BOUND.                                                 

      RESULTS FOR MANIPULATED VARIABLES:
      VARIABLE     FINAL VALUE    LOWER BOUND    UPPER BOUND
         1          4.0000        0.50000         4.0000    

 SENSITIVITY BLOCK S-1      ROW     8 EVALUATION BEGINS                           TIME =      1.07
      VARY VARIABLES:   16.000    

      UOS BLOCK B3       MODEL: RADFRAC                                           TIME =      1.07

       Convergence iterations:
         OL   ML   IL     Err/Tol
          1    3    7      1.4400    
          2    2    4     0.82393E-02

  **  ERROR WHILE EXECUTING UNIT OPERATIONS BLOCK: "B3" (MODEL: "RADFRAC")      
                                                               (UDL03.5)        
      DESIGN SPEC IS NOT SATISFIED BECAUSE ONE OR MORE MANIPULATED              
      VARIABLE IS AT ITS BOUND.                                                 

      RESULTS FOR MANIPULATED VARIABLES:
      VARIABLE     FINAL VALUE    LOWER BOUND    UPPER BOUND
         1          4.0000        0.50000         4.0000    

 SENSITIVITY BLOCK S-1      ROW     9 EVALUATION BEGINS                           TIME =      1.07
      VARY VARIABLES:   17.000    

      UOS BLOCK B3       MODEL: RADFRAC                                           TIME =      1.07

       Convergence iterations:
         OL   ML   IL     Err/Tol
          1    3    7      2.1948    
          2    2    4     0.20202E-01

  **  ERROR WHILE EXECUTING UNIT OPERATIONS BLOCK: "B3" (MODEL: "RADFRAC")      
                                                               (UDL03.5)        
      DESIGN SPEC IS NOT SATISFIED BECAUSE ONE OR MORE MANIPULATED              
      VARIABLE IS AT ITS BOUND.                                                 

      RESULTS FOR MANIPULATED VARIABLES:
      VARIABLE     FINAL VALUE    LOWER BOUND    UPPER BOUND
         1          4.0000        0.50000         4.0000    

 SENSITIVITY BLOCK S-1      ROW    10 (BASE CASE) EVALUATION BEGINS               TIME =      1.07

    SET IFINAL TO   1
      VARY VARIABLES:   15.000    

      UOS BLOCK B3       MODEL: RADFRAC                                           TIME =      1.07

       Convergence iterations:
         OL   ML   IL     Err/Tol
          1    3    8      5.4779    
          2    2    4     0.34818E-01

  **  ERROR WHILE EXECUTING UNIT OPERATIONS BLOCK: "B3" (MODEL: "RADFRAC")      
                                                               (UDL03.5)        
      DESIGN SPEC IS NOT SATISFIED BECAUSE ONE OR MORE MANIPULATED              
      VARIABLE IS AT ITS BOUND.                                                 

      RESULTS FOR MANIPULATED VARIABLES:
      VARIABLE     FINAL VALUE    LOWER BOUND    UPPER BOUND
         1          4.0000        0.50000         4.0000    

    SET IFINAL TO   0

  **  ERROR WHILE EXECUTING SENSITIVITY BLOCK: "S-1"           (SNSTVI.4)       
      SOME ROWS COMPLETED WITH ERRORS.                                          

      CALCULATOR BLOCK C-1                                                        TIME =      1.07

      ENTHALPY CALCULATION FOR INLET STREAM S11 OF BLOCK B10                      TIME =      1.07
      KODE = 2  NTRIAL =   1  T = 500.7985  P = 4.800000E+06  V =  0.00000      Q =  0.00000    

      UOS BLOCK B10      MODEL: HEATX                                             TIME =      1.07
      SPECIFICATION: EXCHANGER DUTY        501.35    
      FLOW TYPE:     COUNTERCURRENT  
      HOT:  TIN=  500.80  PIN=0.48000E+07   TOUT=  484.03  POUT=0.48000E+07
      COLD: TIN=  344.59  PIN=0.11882E+06   TOUT=  346.41  POUT=0.11882E+06
                              DUTY= 501.35    

      UOS BLOCK B11      MODEL: FLASH2                                            TIME =      1.07
      KODE = 1  NTRIAL =   7  T = 346.4112  P =  118824.      V = 0.740532      Q =  0.00000    

      GENERATING RESULTS FOR UOS BLOCK B10      MODEL: HEATX                      TIME =      1.07
      SPECIFICATION: EXCHANGER DUTY        501.35    
      FLOW TYPE:     COUNTERCURRENT  
      HOT:  TIN=  500.80  PIN=0.48000E+07   TOUT=  484.03  POUT=0.48000E+07
      COLD: TIN=  344.59  PIN=0.11882E+06   TOUT=  346.41  POUT=0.11882E+06
      AREA=0.40183E-02       DUTY= 501.35           FT=1.00000

      BEGIN HEATX TQ-CURVE CALCULATIONS FOR BLOCK B10     

      BEGIN COLD-TQCURVE INLET   
      KODE = 1  NTRIAL =   7  T = 346.4112  P =  118824.      V = 0.740532      Q =  0.00000    
      KODE = 1  NTRIAL =   5  T = 346.2611  P =  118824.      V = 0.705555      Q =  0.00000    
      KODE = 1  NTRIAL =   5  T = 346.1213  P =  118824.      V = 0.670532      Q =  0.00000    
      KODE = 1  NTRIAL =   5  T = 345.9910  P =  118824.      V = 0.635466      Q =  0.00000    
      KODE = 1  NTRIAL =   5  T = 345.8691  P =  118824.      V = 0.600361      Q =  0.00000    
      KODE = 1  NTRIAL =   4  T = 345.7550  P =  118824.      V = 0.565220      Q =  0.00000    
      KODE = 1  NTRIAL =   4  T = 345.6479  P =  118824.      V = 0.530048      Q =  0.00000    
      KODE = 1  NTRIAL =   4  T = 345.5473  P =  118824.      V = 0.494847      Q =  0.00000    
      KODE = 1  NTRIAL =   4  T = 345.4526  P =  118824.      V = 0.459619      Q =  0.00000    
      KODE = 1  NTRIAL =   4  T = 345.3633  P =  118824.      V = 0.424367      Q =  0.00000    
      KODE = 1  NTRIAL =   4  T = 345.2789  P =  118824.      V = 0.389092      Q =  0.00000    
      KODE = 1  NTRIAL =   4  T = 345.1992  P =  118824.      V = 0.353796      Q =  0.00000    
      KODE = 1  NTRIAL =   4  T = 345.1237  P =  118824.      V = 0.318482      Q =  0.00000    
      KODE = 1  NTRIAL =   4  T = 345.0521  P =  118824.      V = 0.283150      Q =  0.00000    
      KODE = 1  NTRIAL =   4  T = 344.9841  P =  118824.      V = 0.247802      Q =  0.00000    
      KODE = 1  NTRIAL =   4  T = 344.9194  P =  118824.      V = 0.212439      Q =  0.00000    
      KODE = 1  NTRIAL =   4  T = 344.8579  P =  118824.      V = 0.177062      Q =  0.00000    
      KODE = 1  NTRIAL =   4  T = 344.7993  P =  118824.      V = 0.141672      Q =  0.00000    
      KODE = 1  NTRIAL =   4  T = 344.7434  P =  118824.      V = 0.106271      Q =  0.00000    
      KODE = 1  NTRIAL =   4  T = 344.6900  P =  118824.      V = 7.085738E-02  Q =  0.00000    
      KODE = 1  NTRIAL =   4  T = 344.6390  P =  118824.      V = 3.543373E-02  Q =  0.00000    
      KODE = 1  NTRIAL =   4  T = 344.5903  P =  118824.      V = 2.693036E-07  Q =  0.00000    

      BEGIN HOT-TQCURVE  INLET   
      NO. TEMP ITER =    5     TEMP =  500.799    
      KODE = 1  NTRIAL =   2  T = 500.7985  P = 4.800000E+06  V =  0.00000      Q =  0.00000    
      NO. TEMP ITER =    5     TEMP =  500.014    
      KODE = 1  NTRIAL =   2  T = 500.0139  P = 4.800000E+06  V =  0.00000      Q =  0.00000    
      NO. TEMP ITER =    5     TEMP =  499.228    
      KODE = 1  NTRIAL =   2  T = 499.2277  P = 4.800000E+06  V =  0.00000      Q =  0.00000    
      NO. TEMP ITER =    5     TEMP =  498.440    
      KODE = 1  NTRIAL =   2  T = 498.4401  P = 4.800000E+06  V =  0.00000      Q =  0.00000    
      NO. TEMP ITER =    5     TEMP =  497.651    
      KODE = 1  NTRIAL =   2  T = 497.6511  P = 4.800000E+06  V =  0.00000      Q =  0.00000    
      NO. TEMP ITER =    5     TEMP =  496.861    
      KODE = 1  NTRIAL =   2  T = 496.8606  P = 4.800000E+06  V =  0.00000      Q =  0.00000    
      NO. TEMP ITER =    5     TEMP =  496.069    
      KODE = 1  NTRIAL =   2  T = 496.0688  P = 4.800000E+06  V =  0.00000      Q =  0.00000    
      NO. TEMP ITER =    5     TEMP =  495.275    
      KODE = 1  NTRIAL =   2  T = 495.2755  P = 4.800000E+06  V =  0.00000      Q =  0.00000    
      NO. TEMP ITER =    5     TEMP =  494.481    
      KODE = 1  NTRIAL =   2  T = 494.4808  P = 4.800000E+06  V =  0.00000      Q =  0.00000    
      NO. TEMP ITER =    5     TEMP =  493.685    
      KODE = 1  NTRIAL =   2  T = 493.6847  P = 4.800000E+06  V =  0.00000      Q =  0.00000    
      NO. TEMP ITER =    5     TEMP =  492.887    
      KODE = 1  NTRIAL =   2  T = 492.8872  P = 4.800000E+06  V =  0.00000      Q =  0.00000    
      NO. TEMP ITER =    5     TEMP =  492.088    
      KODE = 1  NTRIAL =   2  T = 492.0884  P = 4.800000E+06  V =  0.00000      Q =  0.00000    
      NO. TEMP ITER =    5     TEMP =  491.288    
      KODE = 1  NTRIAL =   2  T = 491.2882  P = 4.800000E+06  V =  0.00000      Q =  0.00000    
      NO. TEMP ITER =    6     TEMP =  490.487    
      KODE = 1  NTRIAL =   2  T = 490.4866  P = 4.800000E+06  V =  0.00000      Q =  0.00000    
      NO. TEMP ITER =    6     TEMP =  489.684    
      KODE = 1  NTRIAL =   2  T = 489.6838  P = 4.800000E+06  V =  0.00000      Q =  0.00000    
      NO. TEMP ITER =    6     TEMP =  488.880    
      KODE = 1  NTRIAL =   2  T = 488.8795  P = 4.800000E+06  V =  0.00000      Q =  0.00000    
      NO. TEMP ITER =    6     TEMP =  488.074    
      KODE = 1  NTRIAL =   2  T = 488.0740  P = 4.800000E+06  V =  0.00000      Q =  0.00000    
      NO. TEMP ITER =    6     TEMP =  487.267    
      KODE = 1  NTRIAL =   2  T = 487.2671  P = 4.800000E+06  V =  0.00000      Q =  0.00000    
      NO. TEMP ITER =    6     TEMP =  486.459    
      KODE = 1  NTRIAL =   2  T = 486.4590  P = 4.800000E+06  V =  0.00000      Q =  0.00000    
      NO. TEMP ITER =    6     TEMP =  485.650    
      KODE = 1  NTRIAL =   2  T = 485.6496  P = 4.800000E+06  V =  0.00000      Q =  0.00000    
      NO. TEMP ITER =    6     TEMP =  484.839    
      KODE = 1  NTRIAL =   2  T = 484.8388  P = 4.800000E+06  V =  0.00000      Q =  0.00000    
      NO. TEMP ITER =    6     TEMP =  484.027    
      KODE = 1  NTRIAL =   2  T = 484.0268  P = 4.800000E+06  V =  0.00000      Q =  0.00000    

      BEGIN COLD-TQCURVE INLET   

      BEGIN HOT-TQCURVE  INLET   
      END HEATX TQ-CURVE CALCULATIONS FOR BLOCK B10     

      GENERATING RESULTS FOR UOS BLOCK B2       MODEL: HEATX                      TIME =      1.08
      SPECIFICATION: COLD APPROACH TEMP    20.000    
      FLOW TYPE:     COUNTERCURRENT  
      HOT:  TIN=  378.80  PIN=0.49919E+07   TOUT=  346.46  POUT=0.49919E+07
      COLD: TIN=  308.62  PIN=0.12000E+06   TOUT=  358.80  POUT=0.12000E+06
      AREA=0.27928E-01       DUTY= 466.25           FT=1.00000

      BEGIN HEATX TQ-CURVE CALCULATIONS FOR BLOCK B2      

      BEGIN COLD-TQCURVE INLET   
      KODE = 1  NTRIAL =  10  T = 358.8020  P =  120000.      V = 0.651141      Q =  0.00000    
      KODE = 1  NTRIAL =   8  T = 358.2432  P =  120000.      V = 0.615706      Q =  0.00000    
      KODE = 1  NTRIAL =   7  T = 357.7086  P =  120000.      V = 0.580061      Q =  0.00000    
      KODE = 1  NTRIAL =   7  T = 357.1982  P =  120000.      V = 0.544234      Q =  0.00000    
      KODE = 1  NTRIAL =   7  T = 356.7116  P =  120000.      V = 0.508251      Q =  0.00000    
      KODE = 1  NTRIAL =   7  T = 356.2478  P =  120000.      V = 0.472134      Q =  0.00000    
      KODE = 1  NTRIAL =   7  T = 355.8057  P =  120000.      V = 0.435902      Q =  0.00000    
      KODE = 1  NTRIAL =   6  T = 355.3840  P =  120000.      V = 0.399568      Q =  0.00000    
      KODE = 1  NTRIAL =   6  T = 354.9813  P =  120000.      V = 0.363146      Q =  0.00000    
      KODE = 1  NTRIAL =   7  T = 354.5962  P =  120000.      V = 0.326646      Q =  0.00000    
      KODE = 1  NTRIAL =   6  T = 354.2269  P =  120000.      V = 0.290079      Q =  0.00000    
      KODE = 1  NTRIAL =   5  T = 353.8711  P =  120000.      V = 0.253455      Q =  0.00000    
      KODE = 1  NTRIAL =   5  T = 353.5262  P =  120000.      V = 0.216784      Q =  0.00000    
      KODE = 1  NTRIAL =   5  T = 353.1877  P =  120000.      V = 0.180080      Q =  0.00000    
      KODE = 1  NTRIAL =   5  T = 352.8479  P =  120000.      V = 0.143367      Q =  0.00000    
      KODE = 1  NTRIAL =   5  T = 352.4900  P =  120000.      V = 0.106692      Q =  0.00000    
      KODE = 1  NTRIAL =   5  T = 352.0653  P =  120000.      V = 7.018909E-02  Q =  0.00000    
      KODE = 1  NTRIAL =   5  T = 351.3461  P =  120000.      V = 3.448061E-02  Q =  0.00000    
      KODE = 1  NTRIAL =   6  T = 347.8249  P =  120000.      V = 6.396131E-03  Q =  0.00000    
      KODE = 1  NTRIAL =   6  T = 336.1277  P =  120000.      V = 4.719664E-04  Q =  0.00000    
      NO. TEMP ITER =    5     TEMP =  322.486    
      KODE = 1  NTRIAL =   4  T = 322.4857  P =  120000.      V =  0.00000      Q =  0.00000    
      KODE = 3  NTRIAL =  11  T = 330.9164  P =  120000.      V =  0.00000      Q = -430.453    
      NO. TEMP ITER =    5     TEMP =  322.486    
      KODE = 1  NTRIAL =   4  T = 322.4857  P =  120000.      V =  0.00000      Q =  0.00000    
      NO. TEMP ITER =    5     TEMP =  308.622    
      KODE = 1  NTRIAL =   4  T = 308.6220  P =  120000.      V =  0.00000      Q =  0.00000    

      BEGIN HOT-TQCURVE  INLET   
      KODE = 1  NTRIAL =  13  T = 378.8020  P = 4.991894E+06  V = 0.969910      Q =  0.00000    
      KODE = 1  NTRIAL =   7  T = 377.4537  P = 4.991894E+06  V = 0.967972      Q =  0.00000    
      KODE = 1  NTRIAL =   7  T = 376.0916  P = 4.991894E+06  V = 0.966046      Q =  0.00000    
      KODE = 1  NTRIAL =   7  T = 374.7151  P = 4.991894E+06  V = 0.964134      Q =  0.00000    
      KODE = 1  NTRIAL =   6  T = 373.3237  P = 4.991894E+06  V = 0.962237      Q =  0.00000    
      KODE = 1  NTRIAL =   7  T = 371.9166  P = 4.991894E+06  V = 0.960357      Q =  0.00000    
      KODE = 1  NTRIAL =   7  T = 370.4931  P = 4.991894E+06  V = 0.958495      Q =  0.00000    
      KODE = 1  NTRIAL =   7  T = 369.0523  P = 4.991894E+06  V = 0.956651      Q =  0.00000    
      KODE = 1  NTRIAL =   7  T = 367.5934  P = 4.991894E+06  V = 0.954829      Q =  0.00000    
      KODE = 1  NTRIAL =   7  T = 366.1153  P = 4.991894E+06  V = 0.953028      Q =  0.00000    
      KODE = 1  NTRIAL =   7  T = 364.6170  P = 4.991894E+06  V = 0.951250      Q =  0.00000    
      KODE = 1  NTRIAL =   7  T = 363.0975  P = 4.991894E+06  V = 0.949498      Q =  0.00000    
      KODE = 1  NTRIAL =   7  T = 361.5556  P = 4.991894E+06  V = 0.947771      Q =  0.00000    
      KODE = 1  NTRIAL =   7  T = 359.9901  P = 4.991894E+06  V = 0.946072      Q =  0.00000    
      KODE = 1  NTRIAL =   7  T = 358.3998  P = 4.991894E+06  V = 0.944403      Q =  0.00000    
      KODE = 1  NTRIAL =   7  T = 356.7835  P = 4.991894E+06  V = 0.942764      Q =  0.00000    
      KODE = 1  NTRIAL =   7  T = 355.1397  P = 4.991894E+06  V = 0.941157      Q =  0.00000    
      KODE = 1  NTRIAL =   7  T = 353.4672  P = 4.991894E+06  V = 0.939584      Q =  0.00000    
      KODE = 1  NTRIAL =   7  T = 351.7646  P = 4.991894E+06  V = 0.938046      Q =  0.00000    
      KODE = 1  NTRIAL =   7  T = 350.0305  P = 4.991894E+06  V = 0.936545      Q =  0.00000    
      KODE = 1  NTRIAL =   6  T = 349.3492  P = 4.991894E+06  V = 0.935973      Q =  0.00000    
      KODE = 1  NTRIAL =   7  T = 348.2635  P = 4.991894E+06  V = 0.935082      Q =  0.00000    
      KODE = 1  NTRIAL =   7  T = 346.4622  P = 4.991894E+06  V = 0.933658      Q =  0.00000    

      BEGIN COLD-TQCURVE INLET   

      BEGIN HOT-TQCURVE  INLET   
      END HEATX TQ-CURVE CALCULATIONS FOR BLOCK B2      
      STREAM S3 WILL BE FLASHED FOR PROPERTY CALCULATIONS.
      KODE = 2  NTRIAL =   3  T = 338.0804  P =  100000.      V =  1.00000      Q =  0.00000    
      STREAM S4 WILL BE FLASHED FOR PROPERTY CALCULATIONS.
      KODE = 3  NTRIAL =   7  T = 377.6738  P =  120000.      V =  0.00000      Q = 2.271566E-11

  *   WARNING WHILE IN SEQUENCE MONITOR                        (DSWPLO.1)       
      LOWER LIMIT OF STAGE NO.,   10, IN RR VS. NSTAGE PLOT IS LESS THAN        
      THE MINIMUM NO. OF STAGES COMPUTED.                                       
      RR VS. NSTAGE PLOT WILL START AT STAGE NO.,   11                          


*** INPUT SPECIFICATION MESSAGES ***

 CHANGES WERE MADE TO BLOCK        B1       02/15/2025   21:44:03:99 
 BLOCK B1 DSTWU
     PARAM LIGHTKEY=MEOH RECOVL=0.999 HEAVYKEY=H2O RECOVH=0.001  &
         PTOP=1. PBOT=1.2 RDV=1.0 NSTAGE=11 PLOT=YES
     PLOT LOWER=10 UPPER=30 INCR=1

 PDF updated                                                                      TIME =      2.39
 THIS COPY OF ASPEN PLUS LICENSED TO                                 


Calculations begin                                                              time      2.40


      UOS BLOCK B1       MODEL: DSTWU                                             TIME =      2.40
       TD =   338.1    ,  TB =   377.7    ,  RMIN =  0.3600    ,  RACT =   5.021    
       MIN STAGES =   10.04    , ACT STAGES =   11.00    
       ACT. # OF RECT. STAGES =   6.766    
       REBOILER DUTY =   1494.    
       FEED QUALITY =    1.014    

 SENSITIVITY BLOCK S-1      ROW     1 EVALUATION BEGINS                           TIME =      2.40
      VARY VARIABLES:   9.0000    

      UOS BLOCK B3       MODEL: RADFRAC                                           TIME =      2.40

       Convergence iterations:
         OL   ML   IL     Err/Tol
          1    3    8      6.8564    
          2    2    4     0.36484E-01

  **  ERROR WHILE EXECUTING UNIT OPERATIONS BLOCK: "B3" (MODEL: "RADFRAC")      
                                                               (UDL03.5)        
      DESIGN SPEC IS NOT SATISFIED BECAUSE ONE OR MORE MANIPULATED              
      VARIABLE IS AT ITS BOUND.                                                 

      RESULTS FOR MANIPULATED VARIABLES:
      VARIABLE     FINAL VALUE    LOWER BOUND    UPPER BOUND
         1          4.0000        0.50000         4.0000    

 SENSITIVITY BLOCK S-1      ROW     2 EVALUATION BEGINS                           TIME =      2.40
      VARY VARIABLES:   10.000    

      UOS BLOCK B3       MODEL: RADFRAC                                           TIME =      2.40

       Convergence iterations:
         OL   ML   IL     Err/Tol
          1    3    8      1.2330    
          2    2    4     0.70082E-02

  **  ERROR WHILE EXECUTING UNIT OPERATIONS BLOCK: "B3" (MODEL: "RADFRAC")      
                                                               (UDL03.5)        
      DESIGN SPEC IS NOT SATISFIED BECAUSE ONE OR MORE MANIPULATED              
      VARIABLE IS AT ITS BOUND.                                                 

      RESULTS FOR MANIPULATED VARIABLES:
      VARIABLE     FINAL VALUE    LOWER BOUND    UPPER BOUND
         1          4.0000        0.50000         4.0000    

 SENSITIVITY BLOCK S-1      ROW     3 EVALUATION BEGINS                           TIME =      2.40
      VARY VARIABLES:   11.000    

      UOS BLOCK B3       MODEL: RADFRAC                                           TIME =      2.40

       Convergence iterations:
         OL   ML   IL     Err/Tol
          1    3    8      1.2163    
          2    2    4     0.63326E-02

  **  ERROR WHILE EXECUTING UNIT OPERATIONS BLOCK: "B3" (MODEL: "RADFRAC")      
                                                               (UDL03.5)        
      DESIGN SPEC IS NOT SATISFIED BECAUSE ONE OR MORE MANIPULATED              
      VARIABLE IS AT ITS BOUND.                                                 

      RESULTS FOR MANIPULATED VARIABLES:
      VARIABLE     FINAL VALUE    LOWER BOUND    UPPER BOUND
         1          4.0000        0.50000         4.0000    

 SENSITIVITY BLOCK S-1      ROW     4 EVALUATION BEGINS                           TIME =      2.40
      VARY VARIABLES:   12.000    

      UOS BLOCK B3       MODEL: RADFRAC                                           TIME =      2.40

       Convergence iterations:
         OL   ML   IL     Err/Tol
          1    3    8      1.2319    
          2    2    4     0.63242E-02

  **  ERROR WHILE EXECUTING UNIT OPERATIONS BLOCK: "B3" (MODEL: "RADFRAC")      
                                                               (UDL03.5)        
      DESIGN SPEC IS NOT SATISFIED BECAUSE ONE OR MORE MANIPULATED              
      VARIABLE IS AT ITS BOUND.                                                 

      RESULTS FOR MANIPULATED VARIABLES:
      VARIABLE     FINAL VALUE    LOWER BOUND    UPPER BOUND
         1          4.0000        0.50000         4.0000    

 SENSITIVITY BLOCK S-1      ROW     5 EVALUATION BEGINS                           TIME =      2.40
      VARY VARIABLES:   13.000    

      UOS BLOCK B3       MODEL: RADFRAC                                           TIME =      2.40

       Convergence iterations:
         OL   ML   IL     Err/Tol
          1    3    8      1.2251    
          2    2    4     0.57243E-02

  **  ERROR WHILE EXECUTING UNIT OPERATIONS BLOCK: "B3" (MODEL: "RADFRAC")      
                                                               (UDL03.5)        
      DESIGN SPEC IS NOT SATISFIED BECAUSE ONE OR MORE MANIPULATED              
      VARIABLE IS AT ITS BOUND.                                                 

      RESULTS FOR MANIPULATED VARIABLES:
      VARIABLE     FINAL VALUE    LOWER BOUND    UPPER BOUND
         1          4.0000        0.50000         4.0000    

 SENSITIVITY BLOCK S-1      ROW     6 EVALUATION BEGINS                           TIME =      2.40
      VARY VARIABLES:   14.000    

      UOS BLOCK B3       MODEL: RADFRAC                                           TIME =      2.40

       Convergence iterations:
         OL   ML   IL     Err/Tol
          1    3    8      1.2730    
          2    2    4     0.61723E-02

  **  ERROR WHILE EXECUTING UNIT OPERATIONS BLOCK: "B3" (MODEL: "RADFRAC")      
                                                               (UDL03.5)        
      DESIGN SPEC IS NOT SATISFIED BECAUSE ONE OR MORE MANIPULATED              
      VARIABLE IS AT ITS BOUND.                                                 

      RESULTS FOR MANIPULATED VARIABLES:
      VARIABLE     FINAL VALUE    LOWER BOUND    UPPER BOUND
         1          4.0000        0.50000         4.0000    

 SENSITIVITY BLOCK S-1      ROW     7 EVALUATION BEGINS                           TIME =      2.41
      VARY VARIABLES:   15.000    

      UOS BLOCK B3       MODEL: RADFRAC                                           TIME =      2.41

       Convergence iterations:
         OL   ML   IL     Err/Tol
          1    3    8      1.2722    
          2    2    4     0.57325E-02

  **  ERROR WHILE EXECUTING UNIT OPERATIONS BLOCK: "B3" (MODEL: "RADFRAC")      
                                                               (UDL03.5)        
      DESIGN SPEC IS NOT SATISFIED BECAUSE ONE OR MORE MANIPULATED              
      VARIABLE IS AT ITS BOUND.                                                 

      RESULTS FOR MANIPULATED VARIABLES:
      VARIABLE     FINAL VALUE    LOWER BOUND    UPPER BOUND
         1          4.0000        0.50000         4.0000    

 SENSITIVITY BLOCK S-1      ROW     8 EVALUATION BEGINS                           TIME =      2.41
      VARY VARIABLES:   16.000    

      UOS BLOCK B3       MODEL: RADFRAC                                           TIME =      2.41

       Convergence iterations:
         OL   ML   IL     Err/Tol
          1    3    7      1.4400    
          2    2    4     0.82393E-02

  **  ERROR WHILE EXECUTING UNIT OPERATIONS BLOCK: "B3" (MODEL: "RADFRAC")      
                                                               (UDL03.5)        
      DESIGN SPEC IS NOT SATISFIED BECAUSE ONE OR MORE MANIPULATED              
      VARIABLE IS AT ITS BOUND.                                                 

      RESULTS FOR MANIPULATED VARIABLES:
      VARIABLE     FINAL VALUE    LOWER BOUND    UPPER BOUND
         1          4.0000        0.50000         4.0000    

 SENSITIVITY BLOCK S-1      ROW     9 EVALUATION BEGINS                           TIME =      2.41
      VARY VARIABLES:   17.000    

      UOS BLOCK B3       MODEL: RADFRAC                                           TIME =      2.41

       Convergence iterations:
         OL   ML   IL     Err/Tol
          1    3    7      2.1948    
          2    2    4     0.20202E-01

  **  ERROR WHILE EXECUTING UNIT OPERATIONS BLOCK: "B3" (MODEL: "RADFRAC")      
                                                               (UDL03.5)        
      DESIGN SPEC IS NOT SATISFIED BECAUSE ONE OR MORE MANIPULATED              
      VARIABLE IS AT ITS BOUND.                                                 

      RESULTS FOR MANIPULATED VARIABLES:
      VARIABLE     FINAL VALUE    LOWER BOUND    UPPER BOUND
         1          4.0000        0.50000         4.0000    

 SENSITIVITY BLOCK S-1      ROW    10 (BASE CASE) EVALUATION BEGINS               TIME =      2.41

    SET IFINAL TO   1
      VARY VARIABLES:   15.000    

      UOS BLOCK B3       MODEL: RADFRAC                                           TIME =      2.41

       Convergence iterations:
         OL   ML   IL     Err/Tol
          1    3    8      5.4779    
          2    2    4     0.34818E-01

  **  ERROR WHILE EXECUTING UNIT OPERATIONS BLOCK: "B3" (MODEL: "RADFRAC")      
                                                               (UDL03.5)        
      DESIGN SPEC IS NOT SATISFIED BECAUSE ONE OR MORE MANIPULATED              
      VARIABLE IS AT ITS BOUND.                                                 

      RESULTS FOR MANIPULATED VARIABLES:
      VARIABLE     FINAL VALUE    LOWER BOUND    UPPER BOUND
         1          4.0000        0.50000         4.0000    

    SET IFINAL TO   0

  **  ERROR WHILE EXECUTING SENSITIVITY BLOCK: "S-1"           (SNSTVI.4)       
      SOME ROWS COMPLETED WITH ERRORS.                                          

      CALCULATOR BLOCK C-1                                                        TIME =      2.41

      UOS BLOCK B10      MODEL: HEATX                                             TIME =      2.41
      SPECIFICATION: EXCHANGER DUTY        501.35    
      FLOW TYPE:     COUNTERCURRENT  
      HOT:  TIN=  500.80  PIN=0.48000E+07   TOUT=  484.03  POUT=0.48000E+07
      COLD: TIN=  344.59  PIN=0.11882E+06   TOUT=  346.41  POUT=0.11882E+06
                              DUTY= 501.35    

      UOS BLOCK B11      MODEL: FLASH2                                            TIME =      2.41
      KODE = 1  NTRIAL =   1  T = 346.4112  P =  118824.      V = 0.740532      Q =  0.00000    

      GENERATING RESULTS FOR UOS BLOCK B10      MODEL: HEATX                      TIME =      2.41
      SPECIFICATION: EXCHANGER DUTY        501.35    
      FLOW TYPE:     COUNTERCURRENT  
      HOT:  TIN=  500.80  PIN=0.48000E+07   TOUT=  484.03  POUT=0.48000E+07
      COLD: TIN=  344.59  PIN=0.11882E+06   TOUT=  346.41  POUT=0.11882E+06
      AREA=0.40183E-02       DUTY= 501.35           FT=1.00000

      BEGIN HEATX TQ-CURVE CALCULATIONS FOR BLOCK B10     

      BEGIN COLD-TQCURVE INLET   
      KODE = 1  NTRIAL =   7  T = 346.4112  P =  118824.      V = 0.740532      Q =  0.00000    
      KODE = 1  NTRIAL =   5  T = 346.2611  P =  118824.      V = 0.705555      Q =  0.00000    
      KODE = 1  NTRIAL =   5  T = 346.1213  P =  118824.      V = 0.670532      Q =  0.00000    
      KODE = 1  NTRIAL =   5  T = 345.9910  P =  118824.      V = 0.635466      Q =  0.00000    
      KODE = 1  NTRIAL =   5  T = 345.8691  P =  118824.      V = 0.600361      Q =  0.00000    
      KODE = 1  NTRIAL =   4  T = 345.7550  P =  118824.      V = 0.565220      Q =  0.00000    
      KODE = 1  NTRIAL =   4  T = 345.6479  P =  118824.      V = 0.530048      Q =  0.00000    
      KODE = 1  NTRIAL =   4  T = 345.5473  P =  118824.      V = 0.494847      Q =  0.00000    
      KODE = 1  NTRIAL =   4  T = 345.4526  P =  118824.      V = 0.459619      Q =  0.00000    
      KODE = 1  NTRIAL =   4  T = 345.3633  P =  118824.      V = 0.424367      Q =  0.00000    
      KODE = 1  NTRIAL =   4  T = 345.2789  P =  118824.      V = 0.389092      Q =  0.00000    
      KODE = 1  NTRIAL =   4  T = 345.1992  P =  118824.      V = 0.353796      Q =  0.00000    
      KODE = 1  NTRIAL =   4  T = 345.1237  P =  118824.      V = 0.318482      Q =  0.00000    
      KODE = 1  NTRIAL =   4  T = 345.0521  P =  118824.      V = 0.283150      Q =  0.00000    
      KODE = 1  NTRIAL =   4  T = 344.9841  P =  118824.      V = 0.247802      Q =  0.00000    
      KODE = 1  NTRIAL =   4  T = 344.9194  P =  118824.      V = 0.212439      Q =  0.00000    
      KODE = 1  NTRIAL =   4  T = 344.8579  P =  118824.      V = 0.177062      Q =  0.00000    
      KODE = 1  NTRIAL =   4  T = 344.7993  P =  118824.      V = 0.141672      Q =  0.00000    
      KODE = 1  NTRIAL =   4  T = 344.7434  P =  118824.      V = 0.106271      Q =  0.00000    
      KODE = 1  NTRIAL =   4  T = 344.6900  P =  118824.      V = 7.085738E-02  Q =  0.00000    
      KODE = 1  NTRIAL =   4  T = 344.6390  P =  118824.      V = 3.543373E-02  Q =  0.00000    
      KODE = 1  NTRIAL =   4  T = 344.5903  P =  118824.      V = 2.693036E-07  Q =  0.00000    

      BEGIN HOT-TQCURVE  INLET   
      NO. TEMP ITER =    5     TEMP =  500.799    
      KODE = 1  NTRIAL =   2  T = 500.7985  P = 4.800000E+06  V =  0.00000      Q =  0.00000    
      NO. TEMP ITER =    5     TEMP =  500.014    
      KODE = 1  NTRIAL =   2  T = 500.0139  P = 4.800000E+06  V =  0.00000      Q =  0.00000    
      NO. TEMP ITER =    5     TEMP =  499.228    
      KODE = 1  NTRIAL =   2  T = 499.2277  P = 4.800000E+06  V =  0.00000      Q =  0.00000    
      NO. TEMP ITER =    5     TEMP =  498.440    
      KODE = 1  NTRIAL =   2  T = 498.4401  P = 4.800000E+06  V =  0.00000      Q =  0.00000    
      NO. TEMP ITER =    5     TEMP =  497.651    
      KODE = 1  NTRIAL =   2  T = 497.6511  P = 4.800000E+06  V =  0.00000      Q =  0.00000    
      NO. TEMP ITER =    5     TEMP =  496.861    
      KODE = 1  NTRIAL =   2  T = 496.8606  P = 4.800000E+06  V =  0.00000      Q =  0.00000    
      NO. TEMP ITER =    5     TEMP =  496.069    
      KODE = 1  NTRIAL =   2  T = 496.0688  P = 4.800000E+06  V =  0.00000      Q =  0.00000    
      NO. TEMP ITER =    5     TEMP =  495.275    
      KODE = 1  NTRIAL =   2  T = 495.2755  P = 4.800000E+06  V =  0.00000      Q =  0.00000    
      NO. TEMP ITER =    5     TEMP =  494.481    
      KODE = 1  NTRIAL =   2  T = 494.4808  P = 4.800000E+06  V =  0.00000      Q =  0.00000    
      NO. TEMP ITER =    5     TEMP =  493.685    
      KODE = 1  NTRIAL =   2  T = 493.6847  P = 4.800000E+06  V =  0.00000      Q =  0.00000    
      NO. TEMP ITER =    5     TEMP =  492.887    
      KODE = 1  NTRIAL =   2  T = 492.8872  P = 4.800000E+06  V =  0.00000      Q =  0.00000    
      NO. TEMP ITER =    5     TEMP =  492.088    
      KODE = 1  NTRIAL =   2  T = 492.0884  P = 4.800000E+06  V =  0.00000      Q =  0.00000    
      NO. TEMP ITER =    5     TEMP =  491.288    
      KODE = 1  NTRIAL =   2  T = 491.2882  P = 4.800000E+06  V =  0.00000      Q =  0.00000    
      NO. TEMP ITER =    6     TEMP =  490.487    
      KODE = 1  NTRIAL =   2  T = 490.4866  P = 4.800000E+06  V =  0.00000      Q =  0.00000    
      NO. TEMP ITER =    6     TEMP =  489.684    
      KODE = 1  NTRIAL =   2  T = 489.6838  P = 4.800000E+06  V =  0.00000      Q =  0.00000    
      NO. TEMP ITER =    6     TEMP =  488.880    
      KODE = 1  NTRIAL =   2  T = 488.8795  P = 4.800000E+06  V =  0.00000      Q =  0.00000    
      NO. TEMP ITER =    6     TEMP =  488.074    
      KODE = 1  NTRIAL =   2  T = 488.0740  P = 4.800000E+06  V =  0.00000      Q =  0.00000    
      NO. TEMP ITER =    6     TEMP =  487.267    
      KODE = 1  NTRIAL =   2  T = 487.2671  P = 4.800000E+06  V =  0.00000      Q =  0.00000    
      NO. TEMP ITER =    6     TEMP =  486.459    
      KODE = 1  NTRIAL =   2  T = 486.4590  P = 4.800000E+06  V =  0.00000      Q =  0.00000    
      NO. TEMP ITER =    6     TEMP =  485.650    
      KODE = 1  NTRIAL =   2  T = 485.6496  P = 4.800000E+06  V =  0.00000      Q =  0.00000    
      NO. TEMP ITER =    6     TEMP =  484.839    
      KODE = 1  NTRIAL =   2  T = 484.8388  P = 4.800000E+06  V =  0.00000      Q =  0.00000    
      NO. TEMP ITER =    6     TEMP =  484.027    
      KODE = 1  NTRIAL =   2  T = 484.0268  P = 4.800000E+06  V =  0.00000      Q =  0.00000    

      BEGIN COLD-TQCURVE INLET   

      BEGIN HOT-TQCURVE  INLET   
      END HEATX TQ-CURVE CALCULATIONS FOR BLOCK B10     
      STREAM S3 WILL BE FLASHED FOR PROPERTY CALCULATIONS.
      KODE = 2  NTRIAL =   3  T = 338.0804  P =  100000.      V =  1.00000      Q =  0.00000    
      STREAM S4 WILL BE FLASHED FOR PROPERTY CALCULATIONS.
      KODE = 3  NTRIAL =   7  T = 377.6738  P =  120000.      V =  0.00000      Q = 2.271566E-11

  *   WARNING WHILE IN SEQUENCE MONITOR                        (DSWPLO.1)       
      LOWER LIMIT OF STAGE NO.,   10, IN RR VS. NSTAGE PLOT IS LESS THAN        
      THE MINIMUM NO. OF STAGES COMPUTED.                                       
      RR VS. NSTAGE PLOT WILL START AT STAGE NO.,   11                          


*** INPUT SPECIFICATION MESSAGES ***

 CHANGES WERE MADE TO BLOCK        B1       02/15/2025   21:44:04:99 
 BLOCK B1 DSTWU
     PARAM LIGHTKEY=MEOH RECOVL=0.999 HEAVYKEY=H2O RECOVH=0.001  &
         PTOP=1. PBOT=1.2 RDV=1.0 NSTAGE=12 PLOT=YES
     PLOT LOWER=10 UPPER=30 INCR=1

 PDF updated                                                                      TIME =      3.63
 THIS COPY OF ASPEN PLUS LICENSED TO                                 


Calculations begin                                                              time      3.64


      UOS BLOCK B1       MODEL: DSTWU                                             TIME =      3.64
       TD =   338.1    ,  TB =   377.7    ,  RMIN =  0.3600    ,  RACT =   2.958    
       MIN STAGES =   10.04    , ACT STAGES =   12.00    
       ACT. # OF RECT. STAGES =   7.381    
       REBOILER DUTY =   861.2    
       FEED QUALITY =    1.014    

 SENSITIVITY BLOCK S-1      ROW     1 EVALUATION BEGINS                           TIME =      3.64
      VARY VARIABLES:   9.0000    

      UOS BLOCK B3       MODEL: RADFRAC                                           TIME =      3.64

       Convergence iterations:
         OL   ML   IL     Err/Tol
          1    3    8      6.8564    
          2    2    4     0.36484E-01

  **  ERROR WHILE EXECUTING UNIT OPERATIONS BLOCK: "B3" (MODEL: "RADFRAC")      
                                                               (UDL03.5)        
      DESIGN SPEC IS NOT SATISFIED BECAUSE ONE OR MORE MANIPULATED              
      VARIABLE IS AT ITS BOUND.                                                 

      RESULTS FOR MANIPULATED VARIABLES:
      VARIABLE     FINAL VALUE    LOWER BOUND    UPPER BOUND
         1          4.0000        0.50000         4.0000    

 SENSITIVITY BLOCK S-1      ROW     2 EVALUATION BEGINS                           TIME =      3.64
      VARY VARIABLES:   10.000    

      UOS BLOCK B3       MODEL: RADFRAC                                           TIME =      3.64

       Convergence iterations:
         OL   ML   IL     Err/Tol
          1    3    8      1.2330    
          2    2    4     0.70082E-02

  **  ERROR WHILE EXECUTING UNIT OPERATIONS BLOCK: "B3" (MODEL: "RADFRAC")      
                                                               (UDL03.5)        
      DESIGN SPEC IS NOT SATISFIED BECAUSE ONE OR MORE MANIPULATED              
      VARIABLE IS AT ITS BOUND.                                                 

      RESULTS FOR MANIPULATED VARIABLES:
      VARIABLE     FINAL VALUE    LOWER BOUND    UPPER BOUND
         1          4.0000        0.50000         4.0000    

 SENSITIVITY BLOCK S-1      ROW     3 EVALUATION BEGINS                           TIME =      3.64
      VARY VARIABLES:   11.000    

      UOS BLOCK B3       MODEL: RADFRAC                                           TIME =      3.64

       Convergence iterations:
         OL   ML   IL     Err/Tol
          1    3    8      1.2163    
          2    2    4     0.63326E-02

  **  ERROR WHILE EXECUTING UNIT OPERATIONS BLOCK: "B3" (MODEL: "RADFRAC")      
                                                               (UDL03.5)        
      DESIGN SPEC IS NOT SATISFIED BECAUSE ONE OR MORE MANIPULATED              
      VARIABLE IS AT ITS BOUND.                                                 

      RESULTS FOR MANIPULATED VARIABLES:
      VARIABLE     FINAL VALUE    LOWER BOUND    UPPER BOUND
         1          4.0000        0.50000         4.0000    

 SENSITIVITY BLOCK S-1      ROW     4 EVALUATION BEGINS                           TIME =      3.65
      VARY VARIABLES:   12.000    

      UOS BLOCK B3       MODEL: RADFRAC                                           TIME =      3.65

       Convergence iterations:
         OL   ML   IL     Err/Tol
          1    3    8      1.2319    
          2    2    4     0.63242E-02

  **  ERROR WHILE EXECUTING UNIT OPERATIONS BLOCK: "B3" (MODEL: "RADFRAC")      
                                                               (UDL03.5)        
      DESIGN SPEC IS NOT SATISFIED BECAUSE ONE OR MORE MANIPULATED              
      VARIABLE IS AT ITS BOUND.                                                 

      RESULTS FOR MANIPULATED VARIABLES:
      VARIABLE     FINAL VALUE    LOWER BOUND    UPPER BOUND
         1          4.0000        0.50000         4.0000    

 SENSITIVITY BLOCK S-1      ROW     5 EVALUATION BEGINS                           TIME =      3.65
      VARY VARIABLES:   13.000    

      UOS BLOCK B3       MODEL: RADFRAC                                           TIME =      3.65

       Convergence iterations:
         OL   ML   IL     Err/Tol
          1    3    8      1.2251    
          2    2    4     0.57243E-02

  **  ERROR WHILE EXECUTING UNIT OPERATIONS BLOCK: "B3" (MODEL: "RADFRAC")      
                                                               (UDL03.5)        
      DESIGN SPEC IS NOT SATISFIED BECAUSE ONE OR MORE MANIPULATED              
      VARIABLE IS AT ITS BOUND.                                                 

      RESULTS FOR MANIPULATED VARIABLES:
      VARIABLE     FINAL VALUE    LOWER BOUND    UPPER BOUND
         1          4.0000        0.50000         4.0000    

 SENSITIVITY BLOCK S-1      ROW     6 EVALUATION BEGINS                           TIME =      3.65
      VARY VARIABLES:   14.000    

      UOS BLOCK B3       MODEL: RADFRAC                                           TIME =      3.65

       Convergence iterations:
         OL   ML   IL     Err/Tol
          1    3    8      1.2730    
          2    2    4     0.61723E-02

  **  ERROR WHILE EXECUTING UNIT OPERATIONS BLOCK: "B3" (MODEL: "RADFRAC")      
                                                               (UDL03.5)        
      DESIGN SPEC IS NOT SATISFIED BECAUSE ONE OR MORE MANIPULATED              
      VARIABLE IS AT ITS BOUND.                                                 

      RESULTS FOR MANIPULATED VARIABLES:
      VARIABLE     FINAL VALUE    LOWER BOUND    UPPER BOUND
         1          4.0000        0.50000         4.0000    

 SENSITIVITY BLOCK S-1      ROW     7 EVALUATION BEGINS                           TIME =      3.65
      VARY VARIABLES:   15.000    

      UOS BLOCK B3       MODEL: RADFRAC                                           TIME =      3.65

       Convergence iterations:
         OL   ML   IL     Err/Tol
          1    3    8      1.2722    
          2    2    4     0.57325E-02

  **  ERROR WHILE EXECUTING UNIT OPERATIONS BLOCK: "B3" (MODEL: "RADFRAC")      
                                                               (UDL03.5)        
      DESIGN SPEC IS NOT SATISFIED BECAUSE ONE OR MORE MANIPULATED              
      VARIABLE IS AT ITS BOUND.                                                 

      RESULTS FOR MANIPULATED VARIABLES:
      VARIABLE     FINAL VALUE    LOWER BOUND    UPPER BOUND
         1          4.0000        0.50000         4.0000    

 SENSITIVITY BLOCK S-1      ROW     8 EVALUATION BEGINS                           TIME =      3.65
      VARY VARIABLES:   16.000    

      UOS BLOCK B3       MODEL: RADFRAC                                           TIME =      3.65

       Convergence iterations:
         OL   ML   IL     Err/Tol
          1    3    7      1.4400    
          2    2    4     0.82393E-02

  **  ERROR WHILE EXECUTING UNIT OPERATIONS BLOCK: "B3" (MODEL: "RADFRAC")      
                                                               (UDL03.5)        
      DESIGN SPEC IS NOT SATISFIED BECAUSE ONE OR MORE MANIPULATED              
      VARIABLE IS AT ITS BOUND.                                                 

      RESULTS FOR MANIPULATED VARIABLES:
      VARIABLE     FINAL VALUE    LOWER BOUND    UPPER BOUND
         1          4.0000        0.50000         4.0000    

 SENSITIVITY BLOCK S-1      ROW     9 EVALUATION BEGINS                           TIME =      3.65
      VARY VARIABLES:   17.000    

      UOS BLOCK B3       MODEL: RADFRAC                                           TIME =      3.65

       Convergence iterations:
         OL   ML   IL     Err/Tol
          1    3    7      2.1948    
          2    2    4     0.20202E-01

  **  ERROR WHILE EXECUTING UNIT OPERATIONS BLOCK: "B3" (MODEL: "RADFRAC")      
                                                               (UDL03.5)        
      DESIGN SPEC IS NOT SATISFIED BECAUSE ONE OR MORE MANIPULATED              
      VARIABLE IS AT ITS BOUND.                                                 

      RESULTS FOR MANIPULATED VARIABLES:
      VARIABLE     FINAL VALUE    LOWER BOUND    UPPER BOUND
         1          4.0000        0.50000         4.0000    

 SENSITIVITY BLOCK S-1      ROW    10 (BASE CASE) EVALUATION BEGINS               TIME =      3.65

    SET IFINAL TO   1
      VARY VARIABLES:   15.000    

      UOS BLOCK B3       MODEL: RADFRAC                                           TIME =      3.65

       Convergence iterations:
         OL   ML   IL     Err/Tol
          1    3    8      5.4779    
          2    2    4     0.34818E-01

  **  ERROR WHILE EXECUTING UNIT OPERATIONS BLOCK: "B3" (MODEL: "RADFRAC")      
                                                               (UDL03.5)        
      DESIGN SPEC IS NOT SATISFIED BECAUSE ONE OR MORE MANIPULATED              
      VARIABLE IS AT ITS BOUND.                                                 

      RESULTS FOR MANIPULATED VARIABLES:
      VARIABLE     FINAL VALUE    LOWER BOUND    UPPER BOUND
         1          4.0000        0.50000         4.0000    

    SET IFINAL TO   0

  **  ERROR WHILE EXECUTING SENSITIVITY BLOCK: "S-1"           (SNSTVI.4)       
      SOME ROWS COMPLETED WITH ERRORS.                                          

      CALCULATOR BLOCK C-1                                                        TIME =      3.66

      UOS BLOCK B10      MODEL: HEATX                                             TIME =      3.66
      SPECIFICATION: EXCHANGER DUTY        501.35    
      FLOW TYPE:     COUNTERCURRENT  
      HOT:  TIN=  500.80  PIN=0.48000E+07   TOUT=  484.03  POUT=0.48000E+07
      COLD: TIN=  344.59  PIN=0.11882E+06   TOUT=  346.41  POUT=0.11882E+06
                              DUTY= 501.35    

      UOS BLOCK B11      MODEL: FLASH2                                            TIME =      3.66
      KODE = 1  NTRIAL =   1  T = 346.4112  P =  118824.      V = 0.740532      Q =  0.00000    

      GENERATING RESULTS FOR UOS BLOCK B10      MODEL: HEATX                      TIME =      3.66
      SPECIFICATION: EXCHANGER DUTY        501.35    
      FLOW TYPE:     COUNTERCURRENT  
      HOT:  TIN=  500.80  PIN=0.48000E+07   TOUT=  484.03  POUT=0.48000E+07
      COLD: TIN=  344.59  PIN=0.11882E+06   TOUT=  346.41  POUT=0.11882E+06
      AREA=0.40183E-02       DUTY= 501.35           FT=1.00000

      BEGIN HEATX TQ-CURVE CALCULATIONS FOR BLOCK B10     

      BEGIN COLD-TQCURVE INLET   
      KODE = 1  NTRIAL =   7  T = 346.4112  P =  118824.      V = 0.740532      Q =  0.00000    
      KODE = 1  NTRIAL =   5  T = 346.2611  P =  118824.      V = 0.705555      Q =  0.00000    
      KODE = 1  NTRIAL =   5  T = 346.1213  P =  118824.      V = 0.670532      Q =  0.00000    
      KODE = 1  NTRIAL =   5  T = 345.9910  P =  118824.      V = 0.635466      Q =  0.00000    
      KODE = 1  NTRIAL =   5  T = 345.8691  P =  118824.      V = 0.600361      Q =  0.00000    
      KODE = 1  NTRIAL =   4  T = 345.7550  P =  118824.      V = 0.565220      Q =  0.00000    
      KODE = 1  NTRIAL =   4  T = 345.6479  P =  118824.      V = 0.530048      Q =  0.00000    
      KODE = 1  NTRIAL =   4  T = 345.5473  P =  118824.      V = 0.494847      Q =  0.00000    
      KODE = 1  NTRIAL =   4  T = 345.4526  P =  118824.      V = 0.459619      Q =  0.00000    
      KODE = 1  NTRIAL =   4  T = 345.3633  P =  118824.      V = 0.424367      Q =  0.00000    
      KODE = 1  NTRIAL =   4  T = 345.2789  P =  118824.      V = 0.389092      Q =  0.00000    
      KODE = 1  NTRIAL =   4  T = 345.1992  P =  118824.      V = 0.353796      Q =  0.00000    
      KODE = 1  NTRIAL =   4  T = 345.1237  P =  118824.      V = 0.318482      Q =  0.00000    
      KODE = 1  NTRIAL =   4  T = 345.0521  P =  118824.      V = 0.283150      Q =  0.00000    
      KODE = 1  NTRIAL =   4  T = 344.9841  P =  118824.      V = 0.247802      Q =  0.00000    
      KODE = 1  NTRIAL =   4  T = 344.9194  P =  118824.      V = 0.212439      Q =  0.00000    
      KODE = 1  NTRIAL =   4  T = 344.8579  P =  118824.      V = 0.177062      Q =  0.00000    
      KODE = 1  NTRIAL =   4  T = 344.7993  P =  118824.      V = 0.141672      Q =  0.00000    
      KODE = 1  NTRIAL =   4  T = 344.7434  P =  118824.      V = 0.106271      Q =  0.00000    
      KODE = 1  NTRIAL =   4  T = 344.6900  P =  118824.      V = 7.085738E-02  Q =  0.00000    
      KODE = 1  NTRIAL =   4  T = 344.6390  P =  118824.      V = 3.543373E-02  Q =  0.00000    
      KODE = 1  NTRIAL =   4  T = 344.5903  P =  118824.      V = 2.693033E-07  Q =  0.00000    

      BEGIN HOT-TQCURVE  INLET   
      NO. TEMP ITER =    5     TEMP =  500.799    
      KODE = 1  NTRIAL =   2  T = 500.7985  P = 4.800000E+06  V =  0.00000      Q =  0.00000    
[...]
      KODE = 1  NTRIAL =   2  T = 489.0344  P = 4.800000E+06  V =  0.00000      Q =  0.00000    
      NO. TEMP ITER =    6     TEMP =  488.333    
      KODE = 1  NTRIAL =   2  T = 488.3331  P = 4.800000E+06  V =  0.00000      Q =  0.00000    
      NO. TEMP ITER =    6     TEMP =  487.631    
      KODE = 1  NTRIAL =   2  T = 487.6307  P = 4.800000E+06  V =  0.00000      Q =  0.00000    
      NO. TEMP ITER =    6     TEMP =  486.927    
      KODE = 1  NTRIAL =   2  T = 486.9274  P = 4.800000E+06  V =  0.00000      Q =  0.00000    
      NO. TEMP ITER =    6     TEMP =  486.236    
      KODE = 1  NTRIAL =   2  T = 486.2362  P = 4.800000E+06  V =  0.00000      Q =  0.00000    
      NO. TEMP ITER =    6     TEMP =  486.223    
      KODE = 1  NTRIAL =   2  T = 486.2230  P = 4.800000E+06  V =  0.00000      Q =  0.00000    

      BEGIN COLD-TQCURVE INLET   

      BEGIN HOT-TQCURVE  INLET   
      END HEATX TQ-CURVE CALCULATIONS FOR BLOCK B10     
      STREAM S3 WILL BE FLASHED FOR PROPERTY CALCULATIONS.
      KODE = 2  NTRIAL =   3  T = 338.0804  P =  100000.      V =  1.00000      Q =  0.00000    
      STREAM S4 WILL BE FLASHED FOR PROPERTY CALCULATIONS.
      KODE = 3  NTRIAL =   7  T = 377.6738  P =  120000.      V =  0.00000      Q =-2.135272E-11


*** INPUT SPECIFICATION MESSAGES ***

 CHANGES WERE MADE TO STREAM       S11      02/15/2025   21:46:41:99 
 STREAM S11
     SUBSTREAM MIXED TEMP=523.585 PRES=48.
     MOLE-FLOW O2 0. / H2 0. / N2 0. / CO 0. / CO2 0. /  &
         NH3 0. / H2O 0.5 / CH4 0. / C2H6 0. / C3H8 0. /  &
         I-C4 0. / N-C4 0. / MEOH 0. / ETOH 0. / DME 0. /  &
         AR 0.

 CHANGES WERE MADE TO BLOCK        B3       02/15/2025   21:46:41:99 
 BLOCK B3 RADFRAC
     PARAM NSTAGE=10 ALGORITHM=STANDARD MAXOL=25 DAMPING=NONE
     PARAM2
     COL-CONFIG CONDENSER=PARTIAL-V
     FEEDS S6 8
     PRODUCTS S7 1 V / S8 10 L
     PSEUDO-STREA S1 10 PHASE=R STATE=INLET
     P-SPEC 1 1.
     COL-SPECS D:F=0.879029671 DP-COL=0.2 MOLE-RR=1.67457049
     SPEC 1 MOLE-RECOV 0.995 COMPS=MEOH STREAMS=S7  &
         BASE-STREAMS=S6 SPEC-DESCRIP="Mole recovery, 0.995"
     VARY 1 MOLE-RR 0.5 4. 0.01

 SENSITIVITY  S-1      IS GENERATED BECAUSE OF OTHER CHANGES 02/15/2025   21:46:41:99 
 SENSITIVITY S-1
     DEFINE HD BLOCK-VAR BLOCK=B3 VARIABLE=REB-DUTY  &
         SENTENCE=RESULTS UOM="WATT"
     TABULATE 1 "HD"
     VARY BLOCK-VAR BLOCK=B3 VARIABLE=STAGE SENTENCE=FEEDS  &
         ID1=S6
     RANGE OPT-LIST=RANGE LOWER="9" UPPER="17" INCR="1"

 PDF updated                                                                      TIME =    160.32
 THIS COPY OF ASPEN PLUS LICENSED TO                                 
 *** FLOWSHEET ANALYSIS MESSAGES ***

      COMPUTATION ORDER FOR THE FLOWSHEET IS:
      B2 B4 B1 
      S-1 B3 
      (RETURN S-1) 
      C-1 B10 B11 


Calculations begin                                                              time    160.44


 SENSITIVITY BLOCK S-1      ROW     1 EVALUATION BEGINS                           TIME =    160.44
      VARY VARIABLES:   9.0000    

      UOS BLOCK B3       MODEL: RADFRAC                                           TIME =    160.44

       Convergence iterations:
         OL   ML   IL     Err/Tol
          1    6   14      114.13    
          2    5   13      22.713    
          3    5   12      20.325    
          4    4    8      21.338    
          5    5   11      3.0681    
          6    2    5      1.2804    
          7    2    4     0.22140    

      RESULTS FOR MANIPULATED VARIABLES:
      VARIABLE     FINAL VALUE    LOWER BOUND    UPPER BOUND
         1          1.6219        0.50000         4.0000    

 SENSITIVITY BLOCK S-1      ROW     2 EVALUATION BEGINS                           TIME =    160.44
      VARY VARIABLES:   10.000    

      UOS BLOCK B3       MODEL: RADFRAC                                           TIME =    160.44

       Convergence iterations:
         OL   ML   IL     Err/Tol
          1    7   22      17.130    
          2    5   13      14.614    
          3    5   11      17.834    
          4    5   11      19.268    
          5    5   11      19.635    
          6    5   11      19.323    
          7    4    8      15.225    
          8    5   10      5.9056    
          9    4    7      1.3173    
         10    3    4     0.49417    

      RESULTS FOR MANIPULATED VARIABLES:
      VARIABLE     FINAL VALUE    LOWER BOUND    UPPER BOUND
         1          1.8671        0.50000         4.0000    

  *   WARNING WHILE EXECUTING UNIT OPERATIONS BLOCK: "B3" (MODEL: "RADFRAC")    
                                                               (UDL3II.2506)    
      WHEN THERE IS A FEED STREAM TO THE REBOILER THE RESULTS OF                
      THE PSEUDO STREAM FOR THE REBOILER INLET MIGHT BE WRONG.                  

 SENSITIVITY BLOCK S-1      ROW     3 EVALUATION BEGINS                           TIME =    160.44
      VARY VARIABLES:   11.000    

      UOS BLOCK B3       MODEL: RADFRAC                                           TIME =    160.44

       Convergence iterations:
         OL   ML   IL     Err/Tol
          1    7   21      145.61    
          2    5   15      135.74    
          3    5   12      122.39    
          4    5   12      106.04    
          5    5   12      89.338    
          6    5   12      73.715    
          7    5   11      59.506    
          8    5   11      47.905    
          9    5   11      38.354    
         10    5   11      30.941    
         11    5   11      25.316    
         12    5   11      21.119    
         13    5   11      18.030    
         14    5   11      15.780    
         15    5   11      14.155    
         16    5   11      12.986    
         17    5   11      12.137    
         18    5   11      11.503    
         19    5   11      11.006    
         20    5   10      10.590    
         21    4    7      8.2579    
         22    4    6      4.1976    
         23    2    4      4.2324    
         24    2    3      2.0529    
         25    2    3     0.82033    

      RESULTS FOR MANIPULATED VARIABLES:
      VARIABLE     FINAL VALUE    LOWER BOUND    UPPER BOUND
         1          2.6746        0.50000         4.0000    

  *   WARNING WHILE EXECUTING UNIT OPERATIONS BLOCK: "B3" (MODEL: "RADFRAC")    
                                                               (UDL3II.2506)    
      WHEN THERE IS A FEED STREAM TO THE REBOILER THE RESULTS OF                
      THE PSEUDO STREAM FOR THE REBOILER INLET MIGHT BE WRONG.                  

 SENSITIVITY BLOCK S-1      ROW     4 EVALUATION BEGINS                           TIME =    160.45
      VARY VARIABLES:   12.000    

      UOS BLOCK B3       MODEL: RADFRAC                                           TIME =    160.45

  *** SEVERE ERROR WHILE EXECUTING UNIT OPERATIONS BLOCK: "B3" (MODEL:          
      "RADFRAC")                                               (UDL3II.1450)    
      FEED STAGE NUMBER OF STREAM S6      HAS BEEN RESET TO (12)                
      WHICH IS GREATER THAN THE TOTAL NUMBER OF STAGES (10).                    
      BLOCK BYPASSED.                                                           

 SENSITIVITY BLOCK S-1      ROW     5 EVALUATION BEGINS                           TIME =    160.45
      VARY VARIABLES:   13.000    

      UOS BLOCK B3       MODEL: RADFRAC                                           TIME =    160.45

  *** SEVERE ERROR WHILE EXECUTING UNIT OPERATIONS BLOCK: "B3" (MODEL:          
      "RADFRAC")                                               (UDL3II.1450)    
      FEED STAGE NUMBER OF STREAM S6      HAS BEEN RESET TO (13)                
      WHICH IS GREATER THAN THE TOTAL NUMBER OF STAGES (10).                    
      BLOCK BYPASSED.                                                           

 SENSITIVITY BLOCK S-1      ROW     6 EVALUATION BEGINS                           TIME =    160.45
      VARY VARIABLES:   14.000    

      UOS BLOCK B3       MODEL: RADFRAC                                           TIME =    160.45

  *** SEVERE ERROR WHILE EXECUTING UNIT OPERATIONS BLOCK: "B3" (MODEL:          
      "RADFRAC")                                               (UDL3II.1450)    
      FEED STAGE NUMBER OF STREAM S6      HAS BEEN RESET TO (14)                
      WHICH IS GREATER THAN THE TOTAL NUMBER OF STAGES (10).                    
      BLOCK BYPASSED.                                                           

 SENSITIVITY BLOCK S-1      ROW     7 EVALUATION BEGINS                           TIME =    160.45
      VARY VARIABLES:   15.000    

      UOS BLOCK B3       MODEL: RADFRAC                                           TIME =    160.45

  *** SEVERE ERROR WHILE EXECUTING UNIT OPERATIONS BLOCK: "B3" (MODEL:          
      "RADFRAC")                                               (UDL3II.1450)    
      FEED STAGE NUMBER OF STREAM S6      HAS BEEN RESET TO (15)                
      WHICH IS GREATER THAN THE TOTAL NUMBER OF STAGES (10).                    
      BLOCK BYPASSED.                                                           

 SENSITIVITY BLOCK S-1      ROW     8 EVALUATION BEGINS                           TIME =    160.45
      VARY VARIABLES:   16.000    

      UOS BLOCK B3       MODEL: RADFRAC                                           TIME =    160.45

  *** SEVERE ERROR WHILE EXECUTING UNIT OPERATIONS BLOCK: "B3" (MODEL:          
      "RADFRAC")                                               (UDL3II.1450)    
      FEED STAGE NUMBER OF STREAM S6      HAS BEEN RESET TO (16)                
      WHICH IS GREATER THAN THE TOTAL NUMBER OF STAGES (10).                    
      BLOCK BYPASSED.                                                           

 SENSITIVITY BLOCK S-1      ROW     9 EVALUATION BEGINS                           TIME =    160.45
      VARY VARIABLES:   17.000    

      UOS BLOCK B3       MODEL: RADFRAC                                           TIME =    160.45

  *** SEVERE ERROR WHILE EXECUTING UNIT OPERATIONS BLOCK: "B3" (MODEL:          
      "RADFRAC")                                               (UDL3II.1450)    
      FEED STAGE NUMBER OF STREAM S6      HAS BEEN RESET TO (17)                
      WHICH IS GREATER THAN THE TOTAL NUMBER OF STAGES (10).                    
      BLOCK BYPASSED.                                                           

 SENSITIVITY BLOCK S-1      ROW    10 (BASE CASE) EVALUATION BEGINS               TIME =    160.45

    SET IFINAL TO   1
      VARY VARIABLES:   8.0000    

      UOS BLOCK B3       MODEL: RADFRAC                                           TIME =    160.45

       Convergence iterations:
         OL   ML   IL     Err/Tol
          1    7   17      177.39    
          2    5   12      97.749    
          3    5   12      55.411    
          4    5   11      32.740    
          5    5   11      20.330    
          6    5   11      13.658    
          7    5   11      10.251    
          8    5   11      8.7613    
          9    5   11      8.3432    
         10    5   11      8.4473    
         11    5   10      8.7607    
         12    5   10      9.1652    
         13    5   10      9.5784    
         14    5   10      9.9867    
         15    5   10      10.390    
         16    5   10      10.793    
         17    5   10      11.200    
         18    5   10      11.615    
         19    5   10      12.042    
         20    5   10      12.483    
         21    5   10      12.938    
         22    5   10      13.410    
         23    5   10      13.899    
         24    5   11      14.406    
         25    5   11      14.929    

  **  ERROR WHILE EXECUTING UNIT OPERATIONS BLOCK: "B3" (MODEL: "RADFRAC")      
                                                               (UDL03.1)        
      RADFRAC NOT CONVERGED IN  25 OUTSIDE LOOP ITERATIONS.                     

      RESULTS FOR MANIPULATED VARIABLES:
      VARIABLE     FINAL VALUE    LOWER BOUND    UPPER BOUND
         1          1.6746        0.50000         4.0000    

    SET IFINAL TO   0

  **  ERROR WHILE EXECUTING SENSITIVITY BLOCK: "S-1"           (SNSTVI.4)       
      SOME ROWS COMPLETED WITH ERRORS.                                          

      CALCULATOR BLOCK C-1                                                        TIME =    160.45

      ENTHALPY CALCULATION FOR INLET STREAM S11 OF BLOCK B10                      TIME =    160.45
      KODE = 2  NTRIAL =   1  T = 523.5850  P = 4.800000E+06  V =  0.00000      Q =  0.00000    

      UOS BLOCK B10      MODEL: HEATX                                             TIME =    160.45
      SPECIFICATION: EXCHANGER DUTY        436.69    
      FLOW TYPE:     COUNTERCURRENT  
      HOT:  TIN=  523.59  PIN=0.48000E+07   TOUT=  515.42  POUT=0.48000E+07
      COLD: TIN=  356.16  PIN=0.11778E+06   TOUT=  370.85  POUT=0.11778E+06
                              DUTY= 436.69    

      UOS BLOCK B11      MODEL: FLASH2                                            TIME =    160.45
      KODE = 1  NTRIAL =   1  T = 370.8547  P =  117778.      V = 0.907980      Q =  0.00000    

      GENERATING RESULTS FOR UOS BLOCK B10      MODEL: HEATX                      TIME =    160.45
      SPECIFICATION: EXCHANGER DUTY        436.69    
      FLOW TYPE:     COUNTERCURRENT  
      HOT:  TIN=  523.59  PIN=0.48000E+07   TOUT=  515.42  POUT=0.48000E+07
      COLD: TIN=  356.16  PIN=0.11778E+06   TOUT=  370.85  POUT=0.11778E+06
      AREA=0.32973E-02       DUTY= 436.69           FT=1.00000

      BEGIN HEATX TQ-CURVE CALCULATIONS FOR BLOCK B10     

      BEGIN COLD-TQCURVE INLET   
      KODE = 1  NTRIAL =   8  T = 370.8547  P =  117778.      V = 0.907980      Q =  0.00000    
      KODE = 1  NTRIAL =   5  T = 370.4267  P =  117778.      V = 0.866273      Q =  0.00000    
      KODE = 1  NTRIAL =   5  T = 369.9595  P =  117778.      V = 0.824586      Q =  0.00000    
      KODE = 1  NTRIAL =   5  T = 369.4486  P =  117778.      V = 0.782916      Q =  0.00000    
      KODE = 1  NTRIAL =   6  T = 368.8891  P =  117778.      V = 0.741257      Q =  0.00000    
      KODE = 1  NTRIAL =   6  T = 368.2760  P =  117778.      V = 0.699597      Q =  0.00000    
      KODE = 1  NTRIAL =   6  T = 367.6048  P =  117778.      V = 0.657919      Q =  0.00000    
      KODE = 1  NTRIAL =   6  T = 366.8721  P =  117778.      V = 0.616196      Q =  0.00000    
      KODE = 1  NTRIAL =   7  T = 366.0770  P =  117778.      V = 0.574385      Q =  0.00000    
      KODE = 1  NTRIAL =   7  T = 365.2234  P =  117778.      V = 0.532424      Q =  0.00000    
      KODE = 1  NTRIAL =   6  T = 364.3218  P =  117778.      V = 0.490228      Q =  0.00000    
      KODE = 1  NTRIAL =   6  T = 363.3920  P =  117778.      V = 0.447691      Q =  0.00000    
      KODE = 1  NTRIAL =   6  T = 362.4621  P =  117778.      V = 0.404705      Q =  0.00000    
      KODE = 1  NTRIAL =   7  T = 361.5631  P =  117778.      V = 0.361191      Q =  0.00000    
      KODE = 1  NTRIAL =   7  T = 360.7202  P =  117778.      V = 0.317126      Q =  0.00000    
      KODE = 1  NTRIAL =   7  T = 359.9463  P =  117778.      V = 0.272555      Q =  0.00000    
      KODE = 1  NTRIAL =   6  T = 359.2419  P =  117778.      V = 0.227564      Q =  0.00000    
      KODE = 1  NTRIAL =   6  T = 358.6002  P =  117778.      V = 0.182249      Q =  0.00000    
      KODE = 1  NTRIAL =   6  T = 358.0120  P =  117778.      V = 0.136695      Q =  0.00000    
      KODE = 1  NTRIAL =   6  T = 357.4686  P =  117778.      V = 9.096533E-02  Q =  0.00000    
      KODE = 1  NTRIAL =   6  T = 356.9630  P =  117778.      V = 4.510459E-02  Q =  0.00000    
      NO. TEMP ITER =    4     TEMP =  356.161    
      KODE = 1  NTRIAL =   3  T = 356.1609  P =  117778.      V =  0.00000      Q =  0.00000    
      KODE = 3  NTRIAL =   6  T = 356.4983  P =  117778.      V =  0.00000      Q = -436.305    
      NO. TEMP ITER =    4     TEMP =  356.161    
      KODE = 1  NTRIAL =   3  T = 356.1609  P =  117778.      V =  0.00000      Q =  0.00000    

      BEGIN HOT-TQCURVE  INLET   
      NO. TEMP ITER =    5     TEMP =  523.585    
      KODE = 1  NTRIAL =   2  T = 523.5850  P = 4.800000E+06  V =  0.00000      Q =  0.00000    
      NO. TEMP ITER =    5     TEMP =  523.201    
      KODE = 1  NTRIAL =   2  T = 523.2009  P = 4.800000E+06  V =  0.00000      Q =  0.00000    
      NO. TEMP ITER =    5     TEMP =  522.816    
      KODE = 1  NTRIAL =   2  T = 522.8163  P = 4.800000E+06  V =  0.00000      Q =  0.00000    
      NO. TEMP ITER =    5     TEMP =  522.431    
      KODE = 1  NTRIAL =   2  T = 522.4311  P = 4.800000E+06  V =  0.00000      Q =  0.00000    
      NO. TEMP ITER =    5     TEMP =  522.046    
      KODE = 1  NTRIAL =   2  T = 522.0455  P = 4.800000E+06  V =  0.00000      Q =  0.00000    
      NO. TEMP ITER =    5     TEMP =  521.659    
      KODE = 1  NTRIAL =   2  T = 521.6594  P = 4.800000E+06  V =  0.00000      Q =  0.00000    
      NO. TEMP ITER =    5     TEMP =  521.273    
      KODE = 1  NTRIAL =   2  T = 521.2728  P = 4.800000E+06  V =  0.00000      Q =  0.00000    
      NO. TEMP ITER =    5     TEMP =  520.886    
      KODE = 1  NTRIAL =   2  T = 520.8857  P = 4.800000E+06  V =  0.00000      Q =  0.00000    
      NO. TEMP ITER =    5     TEMP =  520.498    
      KODE = 1  NTRIAL =   2  T = 520.4982  P = 4.800000E+06  V =  0.00000      Q =  0.00000    
      NO. TEMP ITER =    5     TEMP =  520.110    
      KODE = 1  NTRIAL =   2  T = 520.1101  P = 4.800000E+06  V =  0.00000      Q =  0.00000    
      NO. TEMP ITER =    5     TEMP =  519.722    
      KODE = 1  NTRIAL =   2  T = 519.7216  P = 4.800000E+06  V =  0.00000      Q =  0.00000    
      NO. TEMP ITER =    5     TEMP =  519.333    
      KODE = 1  NTRIAL =   2  T = 519.3325  P = 4.800000E+06  V =  0.00000      Q =  0.00000    
      NO. TEMP ITER =    5     TEMP =  518.943    
      KODE = 1  NTRIAL =   2  T = 518.9430  P = 4.800000E+06  V =  0.00000      Q =  0.00000    
      NO. TEMP ITER =    5     TEMP =  518.553    
      KODE = 1  NTRIAL =   2  T = 518.5530  P = 4.800000E+06  V =  0.00000      Q =  0.00000    
      NO. TEMP ITER =    5     TEMP =  518.163    
      KODE = 1  NTRIAL =   2  T = 518.1626  P = 4.800000E+06  V =  0.00000      Q =  0.00000    
      NO. TEMP ITER =    5     TEMP =  517.772    
      KODE = 1  NTRIAL =   2  T = 517.7716  P = 4.800000E+06  V =  0.00000      Q =  0.00000    
      NO. TEMP ITER =    5     TEMP =  517.380    
      KODE = 1  NTRIAL =   2  T = 517.3802  P = 4.800000E+06  V =  0.00000      Q =  0.00000    
      NO. TEMP ITER =    5     TEMP =  516.988    
      KODE = 1  NTRIAL =   2  T = 516.9883  P = 4.800000E+06  V =  0.00000      Q =  0.00000    
      NO. TEMP ITER =    5     TEMP =  516.596    
      KODE = 1  NTRIAL =   2  T = 516.5959  P = 4.800000E+06  V =  0.00000      Q =  0.00000    
      NO. TEMP ITER =    5     TEMP =  516.203    
      KODE = 1  NTRIAL =   2  T = 516.2031  P = 4.800000E+06  V =  0.00000      Q =  0.00000    
      NO. TEMP ITER =    5     TEMP =  515.810    
      KODE = 1  NTRIAL =   2  T = 515.8098  P = 4.800000E+06  V =  0.00000      Q =  0.00000    
      NO. TEMP ITER =    5     TEMP =  515.423    
      KODE = 1  NTRIAL =   2  T = 515.4234  P = 4.800000E+06  V =  0.00000      Q =  0.00000    
      NO. TEMP ITER =    5     TEMP =  515.416    
      KODE = 1  NTRIAL =   2  T = 515.4161  P = 4.800000E+06  V =  0.00000      Q =  0.00000    

      BEGIN COLD-TQCURVE INLET   

      BEGIN HOT-TQCURVE  INLET   
      END HEATX TQ-CURVE CALCULATIONS FOR BLOCK B10     
      STREAM S3 WILL BE FLASHED FOR PROPERTY CALCULATIONS.
      KODE = 2  NTRIAL =   3  T = 338.0804  P =  100000.      V =  1.00000      Q =  0.00000    
      STREAM S4 WILL BE FLASHED FOR PROPERTY CALCULATIONS.
      KODE = 3  NTRIAL =   7  T = 377.6738  P =  120000.      V =  0.00000      Q =-2.135272E-11
