
 + + + + + + + + + + + + + + + + + + + + + + + + + + + + + + + + + + + + + + + +
 + + + + + + + + + + + + + + + + + + + + + + + + + + + + + + + + + + + + + + + +
 + +                                                                         + +
 + +                      ASPEN PLUS CALCULATION HISTORY                     + +
 + +                                                                         + +
 + + + + + + + + + + + + + + + + + + + + + + + + + + + + + + + + + + + + + + + +
 + + + + + + + + + + + + + + + + + + + + + + + + + + + + + + + + + + + + + + + +

 ASPEN PLUS IS A TRADEMARK OF           HOTLINE:
 ASPEN TECHNOLOGY, INC.                 U.S.A. 888/996-7100
 781/221-6400                           EUROPE (44) 1189-226555

 PLATFORM: WIN-X64                                       FEBRUARY 15, 2025   
 VERSION: 40.0   Build 359                               SATURDAY    
 INSTALLATION:                                           7:26:56 P.M.        

 THIS COPY OF ASPEN PLUS LICENSED TO                                 


      ASPEN PLUS (R) IS A PROPRIETARY PRODUCT OF ASPEN TECHNOLOGY, INC.
      (ASPENTECH), AND MAY BE USED ONLY UNDER AGREEMENT WITH ASPENTECH.
      RESTRICTED RIGHTS LEGEND:  USE, REPRODUCTION, OR DISCLOSURE BY THE
      U.S. GOVERNMENT IS SUBJECT TO RESTRICTIONS SET FORTH IN 
      (i) FAR 52.227-14, Alt. III, (ii) FAR 52.227-19, (iii) DFARS 
      252.227-7013(c)(1)(ii), or (iv) THE ACCOMPANYING LICENSE AGREEMENT,
      AS APPLICABLE. FOR PURPOSES OF THE FAR, THIS SOFTWARE SHALL BE DEEMED
      TO BE "UNPUBLISHED" AND LICENSED WITH DISCLOSURE PROHIBITIONS.
      CONTRACTOR/SUBCONTRACTOR: ASPEN TECHNOLOGY, INC. 20 CROSBY DRIVE,
      BEDFORD, MA 01730.
 *** INPUT SUMMARY ***

 >>CURRENT RUN

   ORIGINAL RUN                           FEBRUARY 15, 2025   
   7:26:56 P.M.                           SATURDAY    
   INPUT FILE: _2156dbw.inm
   RUN ID : _2156dbw
          1    ;
          2    ;Input file created by Aspen Plus Rel. 40.0 at 19:26:55 Sat Feb 15, 2025
          3    ;Directory E:\project\lsj_y_CH3OH_C\MTC_MEM  Runid DT_WITH_MR_OPT_BOILER
          4    ;
          5
          6
          7    DYNAMICS
          8        DYNAMICS RESULTS=ON
          9
         10    IN-UNITS SI MOLE-FLOW='mol/sec' PRESSURE=bar PDROP=bar  &
         11            SHORT-LENGTH=mm
         12
         13    DEF-STREAMS CONVEN ALL
         14
         15    SIM-OPTIONS MASS-BAL-CHE=YES FLASH-TOL=1E-006 PARADIGM=SM
         16
         17    MODEL-OPTION
         18
         19    DESCRIPTION "
         20        Chemical Simulation with Metric Units :
         21        C, bar, kg/hr, kmol/hr, Gcal/hr, cum/hr.
         22
         23        Property Method: NRTL
         24
         25        Flow basis for input: Mole
         26
         27        Stream report composition: Mole flow
         28        "
         29
         30    DATABANKS 'APV140 PURE40' / 'APV140 AQUEOUS' / 'APV140 SOLIDS' &
         31             / 'APV140 INORGANIC' / NOASPENPCD
         32
         33    PROP-SOURCES 'APV140 PURE40' / 'APV140 AQUEOUS' /  &
         34            'APV140 SOLIDS' / 'APV140 INORGANIC'
         35
         36    COMPONENTS
         37        O2 O2 /
         38        H2 H2 /
         39        N2 N2 /
         40        CO CO /
         41        CO2 CO2 /
         42        NH3 H3N /
         43        H2O H2O /
         44        CH4 CH4 /
         45        C2H6 C2H6 /
         46        C3H8 C3H8 /
         47        I-C4 C4H10-2 /
         48        N-C4 C4H10-1 /
         49        MEOH CH4O /
         50        ETOH C2H6O-2 /
         51        DME C2H6O-1 /
         52        AR AR
         53
         54    COMP-GROUP CG-1 SUBSTREAM=MIXED COMPS=H2 CO2 MEOH H2O CO
         55
         56    SOLVE
         57        PARAM METHOD=EO
         58        RUN-MODE MODE=SIM
         59
         60    FLOWSHEET
         61        BLOCK B1 IN=S5 OUT=S3 S4
         62        BLOCK B3 IN=S6 OUT=S7 S8 S1
         63        BLOCK B4 IN=S18 OUT=S5 S6
         64        BLOCK B10 IN=S11 S1 OUT=S14 S2
         65        BLOCK B11 IN=S2 OUT=S15 S16
         66        BLOCK B2 IN=S9 S10 OUT=S12 S13
         67
         68    PROPERTIES SRK FREE-WATER=STEAMNBS SOLU-WATER=3 TRUE-COMPS=YES
         69        PROPERTIES CPA / NRTL / NRTL-RK / PC-SAFT
         70
         71    PROP-DATA REVIEW-1
         72        IN-UNITS SI MOLE-FLOW='mol/sec' PRESSURE=bar TEMPERATURE=C  &
         73            PDROP=bar SHORT-LENGTH=mm
         74        PROP-LIST CPAAT
         75        PVAL NH3 3
         76        PVAL H2O 4
         77        PVAL ETOH 2
         78        PROP-LIST CPAAT / CPAM / CPAAU / CPAAV
         79        PVAL MEOH 2 / 1.098847630 / -261.2583700 / 12.68234240
         80
         81    PROP-DATA NRTL-1
         82        IN-UNITS MET VOLUME-FLOW='cum/hr' ENTHALPY-FLO='Gcal/hr'  &
         83            HEAT-TRANS-C='kcal/hr-sqm-K' PRESSURE=bar TEMPERATURE=C  &
         84            VOLUME=cum DELTA-T=C HEAD=meter MASS-DENSITY='kg/cum'  &
         85            MOLE-ENTHALP='kcal/mol' MASS-ENTHALP='kcal/kg'  &
         86            MOLE-VOLUME='cum/kmol' HEAT=Gcal MOLE-CONC='mol/l'  &
         87            PDROP=bar SHORT-LENGTH=mm
         88        PROP-LIST NRTL
         89        BPVAL NH3 H2O 9.612100000 -3232.815900 .3000000000 0.0 0.0  &
         90            0.0 10.00000000 91.50000000
         91        BPVAL H2O NH3 -6.268400000 1525.454300 .3000000000 0.0 0.0  &
         92            0.0 10.00000000 91.50000000
         93        BPVAL H2O MEOH 2.732200000 -617.2687000 .3000000000 0.0  &
         94            0.0 0.0 24.99000000 100.0000000
         95        BPVAL MEOH H2O -.6930000000 172.9871000 .3000000000 0.0  &
         96            0.0 0.0 24.99000000 100.0000000
         97        BPVAL N-C4 MEOH 0.0 551.7243000 .3000000000 0.0 0.0 0.0  &
         98            50.00000000 50.00000000
         99        BPVAL MEOH N-C4 0.0 380.4331000 .3000000000 0.0 0.0 0.0  &
        100            50.00000000 50.00000000
        101        BPVAL H2O ETOH 3.457800000 -586.0809000 .3000000000 0.0  &
        102            0.0 0.0 24.99000000 100.0000000
        103        BPVAL ETOH H2O -.8009000000 246.1800000 .3000000000 0.0  &
        104            0.0 0.0 24.99000000 100.0000000
        105        BPVAL MEOH ETOH 4.711900000 -1162.294900 .3000000000 0.0  &
        106            0.0 0.0 20.00000000 78.40000000
        107        BPVAL ETOH MEOH -2.312700000 483.8436000 .3000000000 0.0  &
        108            0.0 0.0 20.00000000 78.40000000
        109        BPVAL MEOH DME 0.0 653.0063000 .2951000000 0.0 0.0 0.0  &
        110            0.0 0.0
        111        BPVAL DME MEOH 0.0 -18.93720000 .2951000000 0.0 0.0 0.0  &
        112            0.0 0.0
        113
        114    PROP-DATA PCSKIJ-1
        115        IN-UNITS SI MOLE-FLOW='mol/sec' PRESSURE=bar TEMPERATURE=C  &
        116            PDROP=bar SHORT-LENGTH=mm
        117        PROP-LIST PCSKIJ
        118        BPVAL H2 C2H6 -1.001900000 .5256000000 0.0 0.0 0.0  &
        119            25.00000000
        120        BPVAL C2H6 H2 -1.001900000 .5256000000 0.0 0.0 0.0  &
        121            25.00000000
        122        BPVAL H2 C3H8 -.1903000000 -.0101000000 0.0 0.0 0.0  &
        123            25.00000000
        124        BPVAL C3H8 H2 -.1903000000 -.0101000000 0.0 0.0 0.0  &
        125            25.00000000
        126        BPVAL CO2 CH4 .0650000000 0.0 0.0 0.0 0.0 25.00000000
        127        BPVAL CH4 CO2 .0650000000 0.0 0.0 0.0 0.0 25.00000000
        128        BPVAL CO2 C3H8 .1090000000 0.0 0.0 0.0 0.0 25.00000000
        129        BPVAL C3H8 CO2 .1090000000 0.0 0.0 0.0 0.0 25.00000000
        130        BPVAL CO2 N-C4 .1200000000 0.0 0.0 0.0 0.0 25.00000000
        131        BPVAL N-C4 CO2 .1200000000 0.0 0.0 0.0 0.0 25.00000000
        132        BPVAL CO2 MEOH 0.0 .0245660000 -.0144960000 0.0 0.0  &
        133            25.00000000
        134        BPVAL MEOH CO2 0.0 .0245660000 -.0144960000 0.0 0.0  &
        135            25.00000000
        136        BPVAL CH4 I-C4 .0280000000 0.0 0.0 0.0 0.0 25.00000000
        137        BPVAL I-C4 CH4 .0280000000 0.0 0.0 0.0 0.0 25.00000000
        138        BPVAL CH4 N-C4 .0220000000 0.0 0.0 0.0 0.0 25.00000000
        139        BPVAL N-C4 CH4 .0220000000 0.0 0.0 0.0 0.0 25.00000000
        140        BPVAL C3H8 N-C4 3.00000000E-3 0.0 0.0 0.0 0.0 25.00000000
        141        BPVAL N-C4 C3H8 3.00000000E-3 0.0 0.0 0.0 0.0 25.00000000
        142        BPVAL I-C4 MEOH .0500000000 0.0 0.0 0.0 0.0 25.00000000
        143        BPVAL MEOH I-C4 .0500000000 0.0 0.0 0.0 0.0 25.00000000
        144        BPVAL N-C4 ETOH .0280000000 0.0 0.0 0.0 0.0 25.00000000
        145        BPVAL ETOH N-C4 .0280000000 0.0 0.0 0.0 0.0 25.00000000
        146
        147    PROP-DATA SRKKIJ-1
        148        IN-UNITS MET VOLUME-FLOW='cum/hr' ENTHALPY-FLO='Gcal/hr'  &
        149            HEAT-TRANS-C='kcal/hr-sqm-K' PRESSURE=bar TEMPERATURE=C  &
        150            VOLUME=cum DELTA-T=C HEAD=meter MASS-DENSITY='kg/cum'  &
        151            MOLE-ENTHALP='kcal/mol' MASS-ENTHALP='kcal/kg'  &
        152            MOLE-VOLUME='cum/kmol' HEAT=Gcal MOLE-CONC='mol/l'  &
        153            PDROP=bar SHORT-LENGTH=mm
        154        PROP-LIST SRKKIJ
        155        BPVAL H2 CH4 -.0244851000 0.0 0.0 -273.1500000 726.8500000
        156        BPVAL CH4 H2 -.0244851000 0.0 0.0 -273.1500000 726.8500000
        157        BPVAL H2 C2H6 .0163828000 0.0 0.0 -273.1500000 726.8500000
        158        BPVAL C2H6 H2 .0163828000 0.0 0.0 -273.1500000 726.8500000
        159        BPVAL H2 C3H8 .1014650000 0.0 0.0 -273.1500000 726.8500000
        160        BPVAL C3H8 H2 .1014650000 0.0 0.0 -273.1500000 726.8500000
        161        BPVAL CO CO2 -.0154400000 0.0 0.0 -273.1500000 726.8500000
        162        BPVAL CO2 CO -.0154400000 0.0 0.0 -273.1500000 726.8500000
        163        BPVAL NH3 C3H8 .1612000000 0.0 0.0 -273.1500000  &
        164            726.8500000
        165        BPVAL C3H8 NH3 .1612000000 0.0 0.0 -273.1500000  &
        166            726.8500000
        167        BPVAL NH3 N-C4 .1659000000 0.0 0.0 -273.1500000  &
        168            726.8500000
        169        BPVAL N-C4 NH3 .1659000000 0.0 0.0 -273.1500000  &
        170            726.8500000
        171        BPVAL CH4 C2H6 4.21992000E-4 0.0 0.0 -273.1500000  &
        172            726.8500000
        173        BPVAL C2H6 CH4 4.21992000E-4 0.0 0.0 -273.1500000  &
        174            726.8500000
        175        BPVAL CH4 C3H8 .0241509000 0.0 0.0 -273.1500000  &
        176            726.8500000
        177        BPVAL C3H8 CH4 .0241509000 0.0 0.0 -273.1500000  &
        178            726.8500000
        179        BPVAL CH4 I-C4 .0460715000 0.0 0.0 -273.1500000  &
        180            726.8500000
        181        BPVAL I-C4 CH4 .0460715000 0.0 0.0 -273.1500000  &
        182            726.8500000
        183        BPVAL CH4 N-C4 .0226440000 0.0 0.0 -273.1500000  &
        184            726.8500000
        185        BPVAL N-C4 CH4 .0226440000 0.0 0.0 -273.1500000  &
        186            726.8500000
        187        BPVAL C2H6 C3H8 1.69511000E-3 0.0 0.0 -273.1500000  &
        188            726.8500000
        189        BPVAL C3H8 C2H6 1.69511000E-3 0.0 0.0 -273.1500000  &
        190            726.8500000
        191        BPVAL C2H6 I-C4 5.51229000E-3 0.0 0.0 -273.1500000  &
        192            726.8500000
        193        BPVAL I-C4 C2H6 5.51229000E-3 0.0 0.0 -273.1500000  &
        194            726.8500000
        195        BPVAL C2H6 N-C4 5.32194000E-3 0.0 0.0 -273.1500000  &
        196            726.8500000
        197        BPVAL N-C4 C2H6 5.32194000E-3 0.0 0.0 -273.1500000  &
        198            726.8500000
        199        BPVAL C3H8 I-C4 -2.9093200E-3 0.0 0.0 -273.1500000  &
        200            726.8500000
        201        BPVAL I-C4 C3H8 -2.9093200E-3 0.0 0.0 -273.1500000  &
        202            726.8500000
        203        BPVAL C3H8 N-C4 -2.0759400E-3 0.0 0.0 -273.1500000  &
        204            726.8500000
        205        BPVAL N-C4 C3H8 -2.0759400E-3 0.0 0.0 -273.1500000  &
        206            726.8500000
        207        BPVAL I-C4 N-C4 -3.7749700E-3 0.0 0.0 -273.1500000  &
        208            726.8500000
        209        BPVAL N-C4 I-C4 -3.7749700E-3 0.0 0.0 -273.1500000  &
        210            726.8500000
        211        BPVAL H2 N-C4 .3911000000 0.0 0.0 1.00000000000000e+35  &
        212            1.00000000000000e+35
        213        BPVAL N-C4 H2 .3911000000 0.0 0.0 1.00000000000000e+35  &
        214            1.00000000000000e+35
        215        BPVAL H2O MEOH -0.0504784863 -6.09021586E-05 0.0  &
        216            -273.1500000 726.8500000
        217        BPVAL MEOH H2O -0.0504784863 -6.09021586E-05 0.0  &
        218            -273.1500000 726.8500000
        219        BPVAL H2O ETOH -0.108972503 9.48080549E-05 0.0 -273.1500000  &
        220            726.8500000
        221        BPVAL ETOH H2O -0.108972503 9.48080549E-05 0.0 -273.1500000  &
        222            726.8500000
        223        BPVAL MEOH ETOH 0.0645026427 -0.000189579302 0.0  &
        224            -273.1500000 726.8500000
        225        BPVAL ETOH MEOH 0.0645026427 -0.000189579302 0.0  &
        226            -273.1500000 726.8500000
        227
        228    PROP-DATA SRKLIJ-1
        229        IN-UNITS MET VOLUME-FLOW='cum/hr' ENTHALPY-FLO='Gcal/hr'  &
        230            HEAT-TRANS-C='kcal/hr-sqm-K' PRESSURE=bar TEMPERATURE=C  &
        231            VOLUME=cum DELTA-T=C HEAD=meter MASS-DENSITY='kg/cum'  &
        232            MOLE-ENTHALP='kcal/mol' MASS-ENTHALP='kcal/kg'  &
        233            MOLE-VOLUME='cum/kmol' HEAT=Gcal MOLE-CONC='mol/l'  &
        234            PDROP=bar SHORT-LENGTH=mm
        235        PROP-LIST SRKLIJ
        236        BPVAL ETOH H2O 0.0979766833 6.19705331E-06 0.0 -273.1500000  &
        237            726.8500000
        238        BPVAL H2O ETOH 0.0390667079 -0.000165051282 0.0  &
        239            -273.1500000 726.8500000
        240        BPVAL MEOH H2O -0.00502994649 -6.09021586E-05 0.0  &
        241            -273.150000 726.850000
        242        BPVAL H2O MEOH 0.0 0.0 0.0 -273.150000 726.850000
        243        BPVAL ETOH MEOH 0.244321895 -0.000669146416 0.0 -273.150000  &
        244            726.850000
        245        BPVAL MEOH ETOH 0.0 0.0 0.0 -273.150000 726.850000
        246
        247    STREAM S9
        248        SUBSTREAM MIXED TEMP=378.802 PRES=49.91893611
        249        MOLE-FLOW H2 0.135784643 / CO 0.006827449 / CO2  &
        250            0.029099122 / H2O 0.007858875 / MEOH 0.008318614
        251
        252    STREAM S10
        253        SUBSTREAM MIXED TEMP=308.622 PRES=1.2
        254        MOLE-FLOW H2 1.09007E-08 / CO 8.6121E-10 / CO2  &
        255            1.96425E-05 / H2O 0.007728168 / MEOH 0.007645372
        256
        257    STREAM S11
        258        SUBSTREAM MIXED TEMP=500.798527 PRES=48.
        259        MOLE-FLOW H2O 0.3
        260
        261    STREAM S18
        262        SUBSTREAM MIXED TEMP=353.21781966 PRES=1.2
        263        MOLE-FLOW O2 0. / H2 3.3333554E-08 / N2 0. / CO  &
        264            4.9908687E-08 / CO2 6.8240157E-05 / NH3 0. / H2O  &
        265            0.00014930401 / CH4 0. / C2H6 0. / C3H8 0. / I-C4  &
        266            0. / N-C4 0. / MEOH 0.00984357534 / ETOH 0. / DME  &
        267            0. / AR 0.
        268
        269    BLOCK B11 FLASH2
        270        PARAM PRES=0. DUTY=0.
        271
        272    BLOCK B2 HEATX
        273        PARAM DELT-COLD=20. CALC-TYPE=DESIGN U-OPTION=PHASE  &
        274            F-OPTION=CONSTANT CALC-METHOD=SHORTCUT
        275        FEEDS HOT=S9 COLD=S10
        276        OUTLETS-HOT S12
        277        OUTLETS-COLD S13
        278        HOT-SIDE DP-OPTION=CONSTANT DPPARMOPT=NO
        279        COLD-SIDE DP-OPTION=CONSTANT DPPARMOPT=NO
        280        TQ-PARAM CURVE=YES
        281
        282    BLOCK B10 HEATX
        283        PARAM DUTY=1. CALC-TYPE=DESIGN U-OPTION=PHASE  &
        284            F-OPTION=CONSTANT CALC-METHOD=SHORTCUT
        285        FEEDS HOT=S11 COLD=S1
        286        OUTLETS-HOT S14
        287        OUTLETS-COLD S2
        288        HOT-SIDE DP-OPTION=CONSTANT DPPARMOPT=NO
        289        COLD-SIDE DP-OPTION=CONSTANT DPPARMOPT=NO
        290        TQ-PARAM CURVE=YES
        291
        292    BLOCK B1 DSTWU
        293        PARAM LIGHTKEY=MEOH RECOVL=0.999 HEAVYKEY=H2O RECOVH=0.001  &
        294            PTOP=1. PBOT=1.2 RDV=1.0 NSTAGE=10 PLOT=YES
        295        PLOT LOWER=10 UPPER=30 INCR=1
        296
        297    BLOCK B3 RADFRAC
        298        PARAM NSTAGE=18 ALGORITHM=STANDARD MAXOL=25 DAMPING=NONE
        299        PARAM2
        300        COL-CONFIG CONDENSER=PARTIAL-V
        301        FEEDS S6 15
        302        PRODUCTS S7 1 V / S8 18 L
        303        PSEUDO-STREA S1 18 PHASE=R STATE=INLET
        304        P-SPEC 1 1.
        305        COL-SPECS D:F=0.49350925 DP-COL=0.2 MOLE-RR=0.921768
        306        SPEC 1 MOLE-RECOV 0.995 COMPS=MEOH STREAMS=S7  &
        307            BASE-STREAMS=S6 SPEC-DESCRIP="Mole recovery, 0.995"
        308        VARY 1 MOLE-RR 0.5 4. 0.01
        309
        310    BLOCK B4 DUPL
        311
        312    EO-CONV-OPTI
        313        PARAM SOLVER=DMO HOMOTOPY=NO
        314        DMO-PARAMS DEFAULT CREEPITER=15 CREEPSIZE=0.01
        315
        316    CALCULATOR C-1
        317        DEFINE QCALC BLOCK-VAR BLOCK=B3 VARIABLE=REB-DUTY  &
        318            SENTENCE=RESULTS UOM="Watt"
        319        DEFINE DUTY BLOCK-VAR BLOCK=B10 VARIABLE=DUTY  &
        320            SENTENCE=PARAM UOM="Watt"
        321    F      DUTY = QCALC
        322        READ-VARS QCALC
        323        WRITE-VARS DUTY
        324
        325    SENSITIVITY S-1
        326        DEFINE HD BLOCK-VAR BLOCK=B3 VARIABLE=REB-DUTY  &
        327            SENTENCE=RESULTS UOM="Watt"
        328        TABULATE 1 "HD"
        329        VARY BLOCK-VAR BLOCK=B3 VARIABLE=STAGE SENTENCE=FEEDS  &
        330            ID1=S6
        331        RANGE OPT-LIST=RANGE LOWER="9" UPPER="17" INCR="1"
        332
        333    CONV-OPTIONS
        334        PARAM TOL=5E-05 TRACEOPT=CUTOFF
        335        WEGSTEIN MAXIT=5000
        336
        337    STREAM-REPOR MOLEFLOW MASSFLOW MOLEFRAC MASSFRAC
        338
        339    PROPERTY-REP PCES PROP-DATA DFMS NOPARAM-PLUS
        340
        341    REACTIONS MEOH-SYN GENERAL
        342        PARAM NTERM-ADS=4
        343        REAC-DATA 1 NAME=RWGS REAC-CLASS=LHHW PHASE=V  &
        344            CBASIS=PARTIALPRES RBASIS=CAT-WT REVERSIBLE=YES  &
        345            REV-METH=USER-SPEC PRES-UNIT="BAR"
        346        REAC-DATA 2 NAME=MEOH-SYN REAC-CLASS=LHHW PHASE=V  &
        347            CBASIS=PARTIALPRES RBASIS=CAT-WT REVERSIBLE=YES  &
        348            REV-METH=USER-SPEC PRES-UNIT="BAR"
        349        RATE-CON 1 PRE-EXP=1446000000. ACT-ENERGY=1.22600000E+8
        350        RATE-CON 2 PRE-EXP=0.0001749 ACT-ENERGY=-4.4450000E+7
        351        STOIC 1 MIXED CO2 -1. / H2 -1. / CO 1. / H2O 1.
        352        STOIC 2 MIXED CO2 -1. / H2 -3. / MEOH 1. / H2O 1.
        353        DFORCE-EXP 1 MIXED CO2 1.
        354        DFORCE-EXP 2 MIXED CO2 1. / MIXED H2 1.
        355        DFORCE-EXP-2 1 MIXED H2 -1. / MIXED CO 1. / MIXED H2O  &
        356            1.
        357        DFORCE-EXP-2 2 MIXED H2 -2. / MIXED MEOH 1. / MIXED  &
        358            H2O 1.
        359        DFORCE-EQ-1 REACNO=1 A=0. B=0. / REACNO=2 A=0.
        360        DFORCE-EQ-2 REACNO=1 A=-4.671945154 B=4773.258898 /  &
        361            REACNO=2 A=24.3889813 B=-7059.72589
        362        ADSORP-EXP REACNO=1 CID=H2O SSID=MIXED EXPONENT=0. 1. 0.  &
        363            1. / REACNO=1 CID=H2 SSID=MIXED EXPONENT=0. -1. 0.5  &
        364            0. / REACNO=2 CID=H2O SSID=MIXED EXPONENT=0. 1. 0.  &
        365            1. / REACNO=2 CID=H2 SSID=MIXED EXPONENT=0. -1. 0.5  &
        366            0.
        367        ADSORP-EQTER REACNO=1 TERM= 1 A=0. / REACNO=1 TERM= 2  &
        368            A=8.147108741 B=0. / REACNO=1 TERM= 3 A=-0.691249907  &
        369            B=2066.174348 / REACNO=1 TERM= 4 A=-23.43827453  &
        370            B=14928.19686 / REACNO=2 TERM= 1 A=0. / REACNO=2  &
        371            TERM= 2 A=8.147108741 B=0. / REACNO=2 TERM= 3  &
        372            A=-0.691249907 B=2066.174348 / REACNO=2 TERM= 4  &
        373            A=-23.43827453 B=14928.19686
        374        ADSORP-POW REACNO=1 EXPONENT=1. / REACNO=2 EXPONENT=3.
        375        ACT-VAL ACTIVITY
        376        SUBOBJECTS ACTIVITY = ACTIVITY
        377        REAC-ACT 1 ACTIVITY=ACTIVITY / 2 ACTIVITY=ACTIVITY
        378    ;
        379    ;
        380    ;
        381    ;
        382    ;
 *** INPUT TRANSLATOR MESSAGES ***

  *** THIS RUN USES THE PROPERTIES ENTERPRISE DATABASE ***
      SQLLOCALDB.APESV140 : (DATAVERSION - 40.0.0.13)                         
      SQLLOCALDB.APV140 : (DATAVERSION - 40.0.0.13)                           
      SQLLOCALDB.FACTV140 : (DATAVERSION - 40.0.0.12)                         
      SQLLOCALDB.NISTV140 : (DATAVERSION - 40.0.0.12)                         
 
 CALCULATOR BLOCK: C-1 WILL BE INTERPRETED 
 SENSITIVITY BLOCK: S-1 WILL BE INTERPRETED 
 

 PDF updated                                                                      TIME =      2.24

 *** CALCULATION TRACE ***


 *** FLOWSHEET ANALYSIS MESSAGES ***

 FLOWSHEET CONNECTIVITY BY STREAMS       

   STREAM     SOURCE     DEST           STREAM     SOURCE     DEST
   S18        ----       B4             S11        ----       B10     
   S10        ----       B2             S9         ----       B2      
   S3         B1         ----           S4         B1         ----    
   S7         B3         ----           S8         B3         ----    
   S1         B3         B10            S5         B4         B1      
   S6         B4         B3             S14        B10        ----    
   S2         B10        B11            S15        B11        ----    
   S16        B11        ----           S12        B2         ----    
   S13        B2         ----                                         

 FLOWSHEET CONNECTIVITY BY BLOCKS        

   BLOCK        INLETS                         OUTLETS
   B1           S5                             S3 S4                       
   B3           S6                             S7 S8 S1                    
   B4           S18                            S5 S6                       
   B10          S11 S1                         S14 S2                      
   B11          S2                             S15 S16                     
   B2           S9 S10                         S12 S13                     

      COMPUTATION ORDER FOR THE FLOWSHEET IS:
      B2 B4 B1 
      S-1 B3 
      (RETURN S-1) 
      C-1 B10 B11 

Calculations begin                                                              time      1.19


 SIMULATION CALCULATIONS BEGIN                                                    TIME =      1.19

      ENTHALPY CALCULATION FOR INLET STREAM S9 OF BLOCK B2                        TIME =      1.19
      KODE = 2  NTRIAL =   7  T = 378.8020  P = 4.991894E+06  V = 0.969910      Q =  0.00000    

      ENTHALPY CALCULATION FOR INLET STREAM S10 OF BLOCK B2                       TIME =      1.20
      KODE = 2  NTRIAL =   4  T = 308.6220  P =  120000.      V =  0.00000      Q =  0.00000    

      UOS BLOCK B2       MODEL: HEATX                                             TIME =      1.20
      SPECIFICATION: COLD APPROACH TEMP    20.000    
      FLOW TYPE:     COUNTERCURRENT  
      HOT:  TIN=  378.80  PIN=0.49919E+07   TOUT=  346.46  POUT=0.49919E+07
      COLD: TIN=  308.62  PIN=0.12000E+06   TOUT=  358.80  POUT=0.12000E+06
                              DUTY= 466.25    

      ENTHALPY CALCULATION FOR INLET STREAM S18 OF BLOCK B4                       TIME =      1.20
      KODE = 2  NTRIAL =   3  T = 353.2178  P =  120000.      V =  1.00000      Q =  0.00000    

      UOS BLOCK B4       MODEL: DUPL                                              TIME =      1.20

      UOS BLOCK B1       MODEL: DSTWU                                             TIME =      1.20
       TD =   338.0    ,  TB =   367.0    ,  RMIN =  0.2372    ,  RACT =  0.4012    
       MIN STAGES =   11.25    , ACT STAGES =   22.50    
       ACT. # OF RECT. STAGES =   12.50    
       REBOILER DUTY =   153.5    
       FEED QUALITY =    1.014    

 SENSITIVITY BLOCK S-1      ROW     1 EVALUATION BEGINS                           TIME =      1.20
      VARY VARIABLES:   9.0000    

      UOS BLOCK B3       MODEL: RADFRAC                                           TIME =      1.20

       Convergence iterations:
         OL   ML   IL     Err/Tol
          1    1   10      2.6265    
          2    1   10      1.2759    
          3    7   19     0.53974    

  *** SEVERE ERROR WHILE EXECUTING UNIT OPERATIONS BLOCK: "B3" (MODEL:          
      "RADFRAC")                                               (UDL03.3)        
      THE FOLLOWING STAGES DRIED UP (VAPOR OR LIQUID FLOW APPROACHES 0):        
        9   18                                                                  
      A LIMIT OF  0.10000E-04 * SUM OF FEEDS WAS IMPOSED ON THE FLOW RATES      
      OR A LIMIT OF  0.10000E-04 WAS IMPOSED ON THE STAGE V/L OR L/V RATIO.     

      RESULTS FOR MANIPULATED VARIABLES:
      VARIABLE     FINAL VALUE    LOWER BOUND    UPPER BOUND
         1         0.96177        0.50000         4.0000    

 SENSITIVITY BLOCK S-1      ROW     2 EVALUATION BEGINS                           TIME =      1.20
      VARY VARIABLES:   10.000    

      UOS BLOCK B3       MODEL: RADFRAC                                           TIME =      1.20

       Convergence iterations:
         OL   ML   IL     Err/Tol
          1    7   19      1.4229    
          2    5   13     0.77883    
          3    5   22     0.42148    

  *** SEVERE ERROR WHILE EXECUTING UNIT OPERATIONS BLOCK: "B3" (MODEL:          
      "RADFRAC")                                               (UDL03.3)        
      THE FOLLOWING STAGES DRIED UP (VAPOR OR LIQUID FLOW APPROACHES 0):        
       10                                                                       
      A LIMIT OF  0.10000E-04 * SUM OF FEEDS WAS IMPOSED ON THE FLOW RATES      
      OR A LIMIT OF  0.10000E-04 WAS IMPOSED ON THE STAGE V/L OR L/V RATIO.     

      RESULTS FOR MANIPULATED VARIABLES:
      VARIABLE     FINAL VALUE    LOWER BOUND    UPPER BOUND
         1          1.0526        0.50000         4.0000    

 SENSITIVITY BLOCK S-1      ROW     3 EVALUATION BEGINS                           TIME =      1.20
      VARY VARIABLES:   11.000    

      UOS BLOCK B3       MODEL: RADFRAC                                           TIME =      1.20

       Convergence iterations:
         OL   ML   IL     Err/Tol
          1    8   40      1.3405    
          2    5   20     0.67626    
          3    5   20     0.34258    

  *** SEVERE ERROR WHILE EXECUTING UNIT OPERATIONS BLOCK: "B3" (MODEL:          
      "RADFRAC")                                               (UDL03.3)        
      THE FOLLOWING STAGES DRIED UP (VAPOR OR LIQUID FLOW APPROACHES 0):        
       11                                                                       
      A LIMIT OF  0.10000E-04 * SUM OF FEEDS WAS IMPOSED ON THE FLOW RATES      
      OR A LIMIT OF  0.10000E-04 WAS IMPOSED ON THE STAGE V/L OR L/V RATIO.     

      RESULTS FOR MANIPULATED VARIABLES:
      VARIABLE     FINAL VALUE    LOWER BOUND    UPPER BOUND
         1          1.0527        0.50000         4.0000    

 SENSITIVITY BLOCK S-1      ROW     4 EVALUATION BEGINS                           TIME =      1.21
      VARY VARIABLES:   12.000    

      UOS BLOCK B3       MODEL: RADFRAC                                           TIME =      1.21

       Convergence iterations:
         OL   ML   IL     Err/Tol
          1    8   39      1.3253    
          2    5   18     0.66551    
          3    5   20     0.33691    

  *** SEVERE ERROR WHILE EXECUTING UNIT OPERATIONS BLOCK: "B3" (MODEL:          
      "RADFRAC")                                               (UDL03.3)        
      THE FOLLOWING STAGES DRIED UP (VAPOR OR LIQUID FLOW APPROACHES 0):        
       12                                                                       
      A LIMIT OF  0.10000E-04 * SUM OF FEEDS WAS IMPOSED ON THE FLOW RATES      
      OR A LIMIT OF  0.10000E-04 WAS IMPOSED ON THE STAGE V/L OR L/V RATIO.     

      RESULTS FOR MANIPULATED VARIABLES:
      VARIABLE     FINAL VALUE    LOWER BOUND    UPPER BOUND
         1          1.0531        0.50000         4.0000    

 SENSITIVITY BLOCK S-1      ROW     5 EVALUATION BEGINS                           TIME =      1.21
      VARY VARIABLES:   13.000    

      UOS BLOCK B3       MODEL: RADFRAC                                           TIME =      1.21

       Convergence iterations:
         OL   ML   IL     Err/Tol
          1    8   38      1.3146    
          2    5   17     0.65975    
          3    5   21     0.33255    
          4    6   21     0.16688    
          5    5   15     0.85309E-01
          6    5   15     0.44341E-01
          7    5   15     0.23585E-01
          8    5   12     0.12868E-01
          9    5   14     0.71606E-02
         10    5   12     0.40830E-02
         11    7   30     0.17292E-02
         12    5   14     0.14040E-02
         13    7   26     0.75755E-03
         14    5   14     0.92244E-03
         15    7   27     0.74136E-03
         16    5   13     0.86401E-03
         17    7   28     0.36039E-02
         18    5   14     0.45395E-03
         19    5   14     0.14595E-02
         20    5   20     0.19774E-02

  *** SEVERE ERROR WHILE EXECUTING UNIT OPERATIONS BLOCK: "B3" (MODEL:          
      "RADFRAC")                                               (UDL03.3)        
      THE FOLLOWING STAGES DRIED UP (VAPOR OR LIQUID FLOW APPROACHES 0):        
       13                                                                       
      A LIMIT OF  0.10000E-04 * SUM OF FEEDS WAS IMPOSED ON THE FLOW RATES      
      OR A LIMIT OF  0.10000E-04 WAS IMPOSED ON THE STAGE V/L OR L/V RATIO.     

      RESULTS FOR MANIPULATED VARIABLES:
      VARIABLE     FINAL VALUE    LOWER BOUND    UPPER BOUND
         1          1.0537        0.50000         4.0000    

 SENSITIVITY BLOCK S-1      ROW     6 EVALUATION BEGINS                           TIME =      1.22
      VARY VARIABLES:   14.000    

      UOS BLOCK B3       MODEL: RADFRAC                                           TIME =      1.22

       Convergence iterations:
         OL   ML   IL     Err/Tol
          1   10   40      1.3015    
          2    5   18     0.65213    
          3    6   20     0.32642    
          4    5   14     0.16361    
          5    5   14     0.82080E-01
          6    5   13     0.41263E-01
          7    5   15     0.20803E-01
          8    5   15     0.10489E-01
          9    5   15     0.52534E-02
         10    6   20     0.41309E-02
         11   10   45     0.12927E-01
         12    6   19     0.46184E-02
         13    5   14     0.35657E-02
         14    5   11     0.49595E-02
         15    5   11     0.43519E-02
         16    5   11     0.33689E-02
         17    5   13     0.26334E-02

  *** SEVERE ERROR WHILE EXECUTING UNIT OPERATIONS BLOCK: "B3" (MODEL:          
      "RADFRAC")                                               (UDL03.3)        
      THE FOLLOWING STAGES DRIED UP (VAPOR OR LIQUID FLOW APPROACHES 0):        
       14                                                                       
      A LIMIT OF  0.10000E-04 * SUM OF FEEDS WAS IMPOSED ON THE FLOW RATES      
      OR A LIMIT OF  0.10000E-04 WAS IMPOSED ON THE STAGE V/L OR L/V RATIO.     

      RESULTS FOR MANIPULATED VARIABLES:
      VARIABLE     FINAL VALUE    LOWER BOUND    UPPER BOUND
         1          1.0529        0.50000         4.0000    

 SENSITIVITY BLOCK S-1      ROW     7 EVALUATION BEGINS                           TIME =      1.22
      VARY VARIABLES:   15.000    

      UOS BLOCK B3       MODEL: RADFRAC                                           TIME =      1.22

       Convergence iterations:
         OL   ML   IL     Err/Tol
          1   10   39      1.2948    
          2    5   16     0.64742    
          3   11   42     0.32544    
          4    6   19     0.16272    
          5    5   11     0.81157E-01
          6    5   15     0.40440E-01
          7    5   15     0.20120E-01
          8    5   15     0.99599E-02
          9    5   16     0.49072E-02
         10    7   30     0.26872E-02
         11    5   12     0.13613E-02
         12    7   24     0.10362E-02
         13    5   12     0.84038E-03
         14    7   26     0.20676E-02
         15    5   15     0.31150E-03
         16    5   14     0.14139E-02
         17    7   27     0.22567E-02
         18    5   14     0.34179E-03
         19    5   11     0.13776E-02
         20    6   21     0.13898E-01
         21    6   19     0.43114E-02
         22    5   14     0.32315E-02
         23    5   11     0.47017E-02
         24    5   11     0.42059E-02
         25    5   11     0.33356E-02

  **  ERROR WHILE EXECUTING UNIT OPERATIONS BLOCK: "B3" (MODEL: "RADFRAC")      
                                                               (UDL03.1)        
      OUTSIDE LOOP TOLERANCE WAS SATISFIED BUT DESIGN SPEC ITERATION            
      (MIDDLE LOOP) FAILED TO CONVERGE.                                         

      RESULTS FOR MANIPULATED VARIABLES:
      VARIABLE     FINAL VALUE    LOWER BOUND    UPPER BOUND
         1          1.0520        0.50000         4.0000    

 SENSITIVITY BLOCK S-1      ROW     8 EVALUATION BEGINS                           TIME =      1.23
      VARY VARIABLES:   16.000    

      UOS BLOCK B3       MODEL: RADFRAC                                           TIME =      1.23

       Convergence iterations:
         OL   ML   IL     Err/Tol
          1   10   39      1.2857    
          2    5   15     0.64120    
          3    5   15     0.32001    

  *** SEVERE ERROR WHILE EXECUTING UNIT OPERATIONS BLOCK: "B3" (MODEL:          
      "RADFRAC")                                               (UDL03.3)        
      THE FOLLOWING STAGES DRIED UP (VAPOR OR LIQUID FLOW APPROACHES 0):        
       16                                                                       
      A LIMIT OF  0.10000E-04 * SUM OF FEEDS WAS IMPOSED ON THE FLOW RATES      
      OR A LIMIT OF  0.10000E-04 WAS IMPOSED ON THE STAGE V/L OR L/V RATIO.     

      RESULTS FOR MANIPULATED VARIABLES:
      VARIABLE     FINAL VALUE    LOWER BOUND    UPPER BOUND
         1          1.0507        0.50000         4.0000    

 SENSITIVITY BLOCK S-1      ROW     9 EVALUATION BEGINS                           TIME =      1.24
      VARY VARIABLES:   17.000    

      UOS BLOCK B3       MODEL: RADFRAC                                           TIME =      1.24

       Convergence iterations:
         OL   ML   IL     Err/Tol
          1   11   58      1.4571    
          2    6   18     0.71706    
          3    5   15     0.32604    
          4    5   15     0.15567    
          5    5   14     0.92305E-01
          6    5   15     0.65587E-01
          7    5   15     0.47643E-01
          8    5   15     0.33523E-01
          9    5   15     0.22826E-01
         10    5   15     0.15169E-01
         11    5   12     0.99209E-02
         12    5   13     0.64296E-02
         13    5   14     0.41526E-02
         14    6   17     0.19413E-02
         15    6   14     0.12438E-03
         16    5   14     0.16993E-02
         17    5   14     0.19412E-02
         18    5   18     0.16481E-02
         19    7   22     0.30435E-03
         20    5   13     0.65494E-03
         21    7   23     0.97776E-04
         22    5   19     0.31281E-02

  *** SEVERE ERROR WHILE EXECUTING UNIT OPERATIONS BLOCK: "B3" (MODEL:          
      "RADFRAC")                                               (UDL03.3)        
      THE FOLLOWING STAGES DRIED UP (VAPOR OR LIQUID FLOW APPROACHES 0):        
       17                                                                       
      A LIMIT OF  0.10000E-04 * SUM OF FEEDS WAS IMPOSED ON THE FLOW RATES      
      OR A LIMIT OF  0.10000E-04 WAS IMPOSED ON THE STAGE V/L OR L/V RATIO.     

      RESULTS FOR MANIPULATED VARIABLES:
      VARIABLE     FINAL VALUE    LOWER BOUND    UPPER BOUND
         1          1.0503        0.50000         4.0000    

 SENSITIVITY BLOCK S-1      ROW    10 (BASE CASE) EVALUATION BEGINS               TIME =      1.24

    SET IFINAL TO   1
      VARY VARIABLES:   15.000    

      UOS BLOCK B3       MODEL: RADFRAC                                           TIME =      1.24

       Convergence iterations:
         OL   ML   IL     Err/Tol
          1   11   60      2.2491    
          2    5   17      1.0017    
          3    5   15     0.44404    
          4    5   15     0.16048    
          5    5   11     0.13869    
          6    5   11     0.22827    
          7    5   10     0.26295    
          8    5   10     0.26985    
          9    5   10     0.26374    
         10    5   10     0.25218    
         11    5   10     0.23882    
         12    5   10     0.22535    
         13    5   10     0.21249    
         14    5   10     0.20052    
         15    5   10     0.18949    
         16    5   10     0.17937    
         17    5   10     0.17009    
         18    5   10     0.16157    
         19    5   10     0.15372    
         20    5   10     0.14649    
         21    5   10     0.13979    
         22    5   10     0.13358    
         23    5   10     0.12781    
         24    5   10     0.12244    
         25    5   10     0.11742    

  **  ERROR WHILE EXECUTING UNIT OPERATIONS BLOCK: "B3" (MODEL: "RADFRAC")      
                                                               (UDL03.1)        
      OUTSIDE LOOP TOLERANCE WAS SATISFIED BUT DESIGN SPEC ITERATION            
      (MIDDLE LOOP) FAILED TO CONVERGE.                                         

      RESULTS FOR MANIPULATED VARIABLES:
      VARIABLE     FINAL VALUE    LOWER BOUND    UPPER BOUND
         1          1.9416        0.50000         4.0000    

    SET IFINAL TO   0

  **  ERROR WHILE EXECUTING SENSITIVITY BLOCK: "S-1"           (SNSTVI.4)       
      SOME ROWS COMPLETED WITH ERRORS.                                          

      CALCULATOR BLOCK C-1                                                        TIME =      1.25

      ENTHALPY CALCULATION FOR INLET STREAM S11 OF BLOCK B10                      TIME =      1.25
      KODE = 2  NTRIAL =   1  T = 500.7985  P = 4.800000E+06  V =  0.00000      Q =  0.00000    

      UOS BLOCK B10      MODEL: HEATX                                             TIME =      1.25
      SPECIFICATION: EXCHANGER DUTY        171.16    
      FLOW TYPE:     COUNTERCURRENT  
      HOT:  TIN=  500.80  PIN=0.48000E+07   TOUT=  495.14  POUT=0.48000E+07
      COLD: TIN=  342.76  PIN=0.11882E+06   TOUT=  342.89  POUT=0.11882E+06
                              DUTY= 171.16    

      UOS BLOCK B11      MODEL: FLASH2                                            TIME =      1.25
      KODE = 1  NTRIAL =   5  T = 342.8894  P =  118824.      V = 0.467993      Q =  0.00000    

      GENERATING RESULTS FOR UOS BLOCK B10      MODEL: HEATX                      TIME =      1.25
      SPECIFICATION: EXCHANGER DUTY        171.16    
      FLOW TYPE:     COUNTERCURRENT  
      HOT:  TIN=  500.80  PIN=0.48000E+07   TOUT=  495.14  POUT=0.48000E+07
      COLD: TIN=  342.76  PIN=0.11882E+06   TOUT=  342.89  POUT=0.11882E+06
      AREA=0.12980E-02       DUTY= 171.16           FT=1.00000

      BEGIN HEATX TQ-CURVE CALCULATIONS FOR BLOCK B10     

      BEGIN COLD-TQCURVE INLET   
      KODE = 1  NTRIAL =   5  T = 342.8894  P =  118824.      V = 0.467993      Q =  0.00000    
      KODE = 1  NTRIAL =   3  T = 342.8809  P =  118824.      V = 0.445718      Q =  0.00000    
      KODE = 1  NTRIAL =   3  T = 342.8727  P =  118824.      V = 0.423441      Q =  0.00000    
      KODE = 1  NTRIAL =   3  T = 342.8648  P =  118824.      V = 0.401164      Q =  0.00000    
      KODE = 1  NTRIAL =   3  T = 342.8572  P =  118824.      V = 0.378885      Q =  0.00000    
      KODE = 1  NTRIAL =   3  T = 342.8499  P =  118824.      V = 0.356605      Q =  0.00000    
      KODE = 1  NTRIAL =   3  T = 342.8428  P =  118824.      V = 0.334323      Q =  0.00000    
      KODE = 1  NTRIAL =   3  T = 342.8359  P =  118824.      V = 0.312041      Q =  0.00000    
      KODE = 1  NTRIAL =   3  T = 342.8293  P =  118824.      V = 0.289758      Q =  0.00000    
      KODE = 1  NTRIAL =   3  T = 342.8228  P =  118824.      V = 0.267473      Q =  0.00000    
      KODE = 1  NTRIAL =   3  T = 342.8166  P =  118824.      V = 0.245188      Q =  0.00000    
      KODE = 1  NTRIAL =   3  T = 342.8106  P =  118824.      V = 0.222902      Q =  0.00000    
      KODE = 1  NTRIAL =   3  T = 342.8047  P =  118824.      V = 0.200615      Q =  0.00000    
      KODE = 1  NTRIAL =   3  T = 342.7991  P =  118824.      V = 0.178327      Q =  0.00000    
      KODE = 1  NTRIAL =   3  T = 342.7936  P =  118824.      V = 0.156039      Q =  0.00000    
      KODE = 1  NTRIAL =   3  T = 342.7882  P =  118824.      V = 0.133749      Q =  0.00000    
      KODE = 1  NTRIAL =   3  T = 342.7831  P =  118824.      V = 0.111459      Q =  0.00000    
      KODE = 1  NTRIAL =   3  T = 342.7780  P =  118824.      V = 8.916870E-02  Q =  0.00000    
      KODE = 1  NTRIAL =   3  T = 342.7731  P =  118824.      V = 6.687738E-02  Q =  0.00000    
      KODE = 1  NTRIAL =   3  T = 342.7684  P =  118824.      V = 4.458544E-02  Q =  0.00000    
      KODE = 1  NTRIAL =   3  T = 342.7637  P =  118824.      V = 2.229290E-02  Q =  0.00000    
      NO. TEMP ITER =    4     TEMP =  342.759    
      KODE = 1  NTRIAL =   2  T = 342.7592  P =  118824.      V =  0.00000      Q =  0.00000    
      KODE = 3  NTRIAL =   6  T = 342.7592  P =  118824.      V =  0.00000      Q = -171.159    
      NO. TEMP ITER =    4     TEMP =  342.759    
      KODE = 1  NTRIAL =   2  T = 342.7592  P =  118824.      V =  0.00000      Q =  0.00000    

      BEGIN HOT-TQCURVE  INLET   
      NO. TEMP ITER =    5     TEMP =  500.799    
      KODE = 1  NTRIAL =   2  T = 500.7985  P = 4.800000E+06  V =  0.00000      Q =  0.00000    
      NO. TEMP ITER =    5     TEMP =  500.531    
      KODE = 1  NTRIAL =   2  T = 500.5308  P = 4.800000E+06  V =  0.00000      Q =  0.00000    
      NO. TEMP ITER =    5     TEMP =  500.263    
      KODE = 1  NTRIAL =   2  T = 500.2629  P = 4.800000E+06  V =  0.00000      Q =  0.00000    
      NO. TEMP ITER =    5     TEMP =  499.995    
      KODE = 1  NTRIAL =   2  T = 499.9949  P = 4.800000E+06  V =  0.00000      Q =  0.00000    
      NO. TEMP ITER =    5     TEMP =  499.727    
      KODE = 1  NTRIAL =   2  T = 499.7266  P = 4.800000E+06  V =  0.00000      Q =  0.00000    
      NO. TEMP ITER =    5     TEMP =  499.458    
      KODE = 1  NTRIAL =   2  T = 499.4582  P = 4.800000E+06  V =  0.00000      Q =  0.00000    
      NO. TEMP ITER =    5     TEMP =  499.190    
      KODE = 1  NTRIAL =   2  T = 499.1897  P = 4.800000E+06  V =  0.00000      Q =  0.00000    
      NO. TEMP ITER =    5     TEMP =  498.921    
      KODE = 1  NTRIAL =   2  T = 498.9209  P = 4.800000E+06  V =  0.00000      Q =  0.00000    
      NO. TEMP ITER =    5     TEMP =  498.652    
      KODE = 1  NTRIAL =   2  T = 498.6520  P = 4.800000E+06  V =  0.00000      Q =  0.00000    
      NO. TEMP ITER =    5     TEMP =  498.383    
      KODE = 1  NTRIAL =   2  T = 498.3829  P = 4.800000E+06  V =  0.00000      Q =  0.00000    
      NO. TEMP ITER =    5     TEMP =  498.114    
      KODE = 1  NTRIAL =   2  T = 498.1137  P = 4.800000E+06  V =  0.00000      Q =  0.00000    
      NO. TEMP ITER =    5     TEMP =  497.844    
      KODE = 1  NTRIAL =   2  T = 497.8443  P = 4.800000E+06  V =  0.00000      Q =  0.00000    
      NO. TEMP ITER =    5     TEMP =  497.575    
      KODE = 1  NTRIAL =   2  T = 497.5747  P = 4.800000E+06  V =  0.00000      Q =  0.00000    
      NO. TEMP ITER =    5     TEMP =  497.305    
      KODE = 1  NTRIAL =   2  T = 497.3049  P = 4.800000E+06  V =  0.00000      Q =  0.00000    
      NO. TEMP ITER =    5     TEMP =  497.035    
      KODE = 1  NTRIAL =   2  T = 497.0350  P = 4.800000E+06  V =  0.00000      Q =  0.00000    
      NO. TEMP ITER =    5     TEMP =  496.765    
      KODE = 1  NTRIAL =   2  T = 496.7649  P = 4.800000E+06  V =  0.00000      Q =  0.00000    
      NO. TEMP ITER =    5     TEMP =  496.495    
      KODE = 1  NTRIAL =   2  T = 496.4947  P = 4.800000E+06  V =  0.00000      Q =  0.00000    
      NO. TEMP ITER =    5     TEMP =  496.224    
      KODE = 1  NTRIAL =   2  T = 496.2243  P = 4.800000E+06  V =  0.00000      Q =  0.00000    
      NO. TEMP ITER =    5     TEMP =  495.954    
      KODE = 1  NTRIAL =   2  T = 495.9537  P = 4.800000E+06  V =  0.00000      Q =  0.00000    
      NO. TEMP ITER =    5     TEMP =  495.683    
      KODE = 1  NTRIAL =   2  T = 495.6830  P = 4.800000E+06  V =  0.00000      Q =  0.00000    
      NO. TEMP ITER =    5     TEMP =  495.412    
      KODE = 1  NTRIAL =   2  T = 495.4121  P = 4.800000E+06  V =  0.00000      Q =  0.00000    
      NO. TEMP ITER =    5     TEMP =  495.141    
      KODE = 1  NTRIAL =   2  T = 495.1410  P = 4.800000E+06  V =  0.00000      Q =  0.00000    

      BEGIN COLD-TQCURVE INLET   

      BEGIN HOT-TQCURVE  INLET   
      END HEATX TQ-CURVE CALCULATIONS FOR BLOCK B10     

      GENERATING RESULTS FOR UOS BLOCK B2       MODEL: HEATX                      TIME =      1.26
      SPECIFICATION: COLD APPROACH TEMP    20.000    
      FLOW TYPE:     COUNTERCURRENT  
      HOT:  TIN=  378.80  PIN=0.49919E+07   TOUT=  346.46  POUT=0.49919E+07
      COLD: TIN=  308.62  PIN=0.12000E+06   TOUT=  358.80  POUT=0.12000E+06
      AREA=0.27928E-01       DUTY= 466.25           FT=1.00000

      BEGIN HEATX TQ-CURVE CALCULATIONS FOR BLOCK B2      

      BEGIN COLD-TQCURVE INLET   
      KODE = 1  NTRIAL =  10  T = 358.8020  P =  120000.      V = 0.651141      Q =  0.00000    
      KODE = 1  NTRIAL =   8  T = 358.2432  P =  120000.      V = 0.615706      Q =  0.00000    
      KODE = 1  NTRIAL =   7  T = 357.7086  P =  120000.      V = 0.580061      Q =  0.00000    
      KODE = 1  NTRIAL =   7  T = 357.1982  P =  120000.      V = 0.544234      Q =  0.00000    
      KODE = 1  NTRIAL =   7  T = 356.7116  P =  120000.      V = 0.508251      Q =  0.00000    
      KODE = 1  NTRIAL =   7  T = 356.2478  P =  120000.      V = 0.472134      Q =  0.00000    
      KODE = 1  NTRIAL =   7  T = 355.8057  P =  120000.      V = 0.435902      Q =  0.00000    
      KODE = 1  NTRIAL =   6  T = 355.3840  P =  120000.      V = 0.399568      Q =  0.00000    
      KODE = 1  NTRIAL =   6  T = 354.9813  P =  120000.      V = 0.363146      Q =  0.00000    
      KODE = 1  NTRIAL =   7  T = 354.5962  P =  120000.      V = 0.326646      Q =  0.00000    
      KODE = 1  NTRIAL =   6  T = 354.2269  P =  120000.      V = 0.290079      Q =  0.00000    
      KODE = 1  NTRIAL =   5  T = 353.8711  P =  120000.      V = 0.253455      Q =  0.00000    
      KODE = 1  NTRIAL =   5  T = 353.5262  P =  120000.      V = 0.216784      Q =  0.00000    
      KODE = 1  NTRIAL =   5  T = 353.1877  P =  120000.      V = 0.180080      Q =  0.00000    
      KODE = 1  NTRIAL =   5  T = 352.8479  P =  120000.      V = 0.143367      Q =  0.00000    
      KODE = 1  NTRIAL =   5  T = 352.4900  P =  120000.      V = 0.106692      Q =  0.00000    
      KODE = 1  NTRIAL =   5  T = 352.0653  P =  120000.      V = 7.018909E-02  Q =  0.00000    
      KODE = 1  NTRIAL =   5  T = 351.3461  P =  120000.      V = 3.448061E-02  Q =  0.00000    
      KODE = 1  NTRIAL =   6  T = 347.8249  P =  120000.      V = 6.396131E-03  Q =  0.00000    
      KODE = 1  NTRIAL =   6  T = 336.1277  P =  120000.      V = 4.719664E-04  Q =  0.00000    
      NO. TEMP ITER =    5     TEMP =  322.486    
      KODE = 1  NTRIAL =   4  T = 322.4857  P =  120000.      V =  0.00000      Q =  0.00000    
      KODE = 3  NTRIAL =  11  T = 330.9164  P =  120000.      V =  0.00000      Q = -430.453    
      NO. TEMP ITER =    5     TEMP =  322.486    
      KODE = 1  NTRIAL =   4  T = 322.4857  P =  120000.      V =  0.00000      Q =  0.00000    
      NO. TEMP ITER =    5     TEMP =  308.622    
      KODE = 1  NTRIAL =   4  T = 308.6220  P =  120000.      V =  0.00000      Q =  0.00000    

      BEGIN HOT-TQCURVE  INLET   
      KODE = 1  NTRIAL =  13  T = 378.8020  P = 4.991894E+06  V = 0.969910      Q =  0.00000    
      KODE = 1  NTRIAL =   7  T = 377.4537  P = 4.991894E+06  V = 0.967972      Q =  0.00000    
      KODE = 1  NTRIAL =   7  T = 376.0916  P = 4.991894E+06  V = 0.966046      Q =  0.00000    
      KODE = 1  NTRIAL =   7  T = 374.7151  P = 4.991894E+06  V = 0.964134      Q =  0.00000    
      KODE = 1  NTRIAL =   6  T = 373.3237  P = 4.991894E+06  V = 0.962237      Q =  0.00000    
      KODE = 1  NTRIAL =   7  T = 371.9166  P = 4.991894E+06  V = 0.960357      Q =  0.00000    
      KODE = 1  NTRIAL =   7  T = 370.4931  P = 4.991894E+06  V = 0.958495      Q =  0.00000    
      KODE = 1  NTRIAL =   7  T = 369.0523  P = 4.991894E+06  V = 0.956651      Q =  0.00000    
      KODE = 1  NTRIAL =   7  T = 367.5934  P = 4.991894E+06  V = 0.954829      Q =  0.00000    
      KODE = 1  NTRIAL =   7  T = 366.1153  P = 4.991894E+06  V = 0.953028      Q =  0.00000    
      KODE = 1  NTRIAL =   7  T = 364.6170  P = 4.991894E+06  V = 0.951250      Q =  0.00000    
      KODE = 1  NTRIAL =   7  T = 363.0975  P = 4.991894E+06  V = 0.949498      Q =  0.00000    
      KODE = 1  NTRIAL =   7  T = 361.5556  P = 4.991894E+06  V = 0.947771      Q =  0.00000    
      KODE = 1  NTRIAL =   7  T = 359.9901  P = 4.991894E+06  V = 0.946072      Q =  0.00000    
      KODE = 1  NTRIAL =   7  T = 358.3998  P = 4.991894E+06  V = 0.944403      Q =  0.00000    
      KODE = 1  NTRIAL =   7  T = 356.7835  P = 4.991894E+06  V = 0.942764      Q =  0.00000    
      KODE = 1  NTRIAL =   7  T = 355.1397  P = 4.991894E+06  V = 0.941157      Q =  0.00000    
      KODE = 1  NTRIAL =   7  T = 353.4672  P = 4.991894E+06  V = 0.939584      Q =  0.00000    
      KODE = 1  NTRIAL =   7  T = 351.7646  P = 4.991894E+06  V = 0.938046      Q =  0.00000    
      KODE = 1  NTRIAL =   7  T = 350.0305  P = 4.991894E+06  V = 0.936545      Q =  0.00000    
      KODE = 1  NTRIAL =   6  T = 349.3492  P = 4.991894E+06  V = 0.935973      Q =  0.00000    
      KODE = 1  NTRIAL =   7  T = 348.2635  P = 4.991894E+06  V = 0.935082      Q =  0.00000    
      KODE = 1  NTRIAL =   7  T = 346.4622  P = 4.991894E+06  V = 0.933658      Q =  0.00000    

      BEGIN COLD-TQCURVE INLET   

      BEGIN HOT-TQCURVE  INLET   
      END HEATX TQ-CURVE CALCULATIONS FOR BLOCK B2      
      STREAM S3 WILL BE FLASHED FOR PROPERTY CALCULATIONS.
      KODE = 2  NTRIAL =   3  T = 338.0238  P =  100000.      V =  1.00000      Q =-2.951087E-13
      STREAM S4 WILL BE FLASHED FOR PROPERTY CALCULATIONS.
      KODE = 3  NTRIAL =   8  T = 366.9691  P =  120000.      V =  0.00000      Q = 1.791160E-12

  *   WARNING WHILE IN SEQUENCE MONITOR                        (DSWPLO.1)       
      LOWER LIMIT OF STAGE NO.,   10, IN RR VS. NSTAGE PLOT IS LESS THAN        
      THE MINIMUM NO. OF STAGES COMPUTED.                                       
      RR VS. NSTAGE PLOT WILL START AT STAGE NO.,   12                          


*** INPUT SPECIFICATION MESSAGES ***

 CHANGES WERE MADE TO BLOCK        B1       02/15/2025   19:27:01:99 
 BLOCK B1 DSTWU
     PARAM LIGHTKEY=MEOH RECOVL=0.999 HEAVYKEY=H2O RECOVH=0.001  &
         PTOP=1. PBOT=1.2 RDV=1.0 NSTAGE=11 PLOT=YES
     PLOT LOWER=10 UPPER=30 INCR=1

 PDF updated                                                                      TIME =      2.66
 THIS COPY OF ASPEN PLUS LICENSED TO                                 


Calculations begin                                                              time      2.67


      UOS BLOCK B1       MODEL: DSTWU                                             TIME =      2.67
       TD =   338.0    ,  TB =   367.0    ,  RMIN =  0.2372    ,  RACT =  0.4012    
       MIN STAGES =   11.25    , ACT STAGES =   22.50    
       ACT. # OF RECT. STAGES =   12.50    
       REBOILER DUTY =   153.5    
       FEED QUALITY =    1.014    

 SENSITIVITY BLOCK S-1      ROW     1 EVALUATION BEGINS                           TIME =      2.67
      VARY VARIABLES:   9.0000    

      UOS BLOCK B3       MODEL: RADFRAC                                           TIME =      2.67

       Convergence iterations:
         OL   ML   IL     Err/Tol
          1    7   15      6.4099    
          2    5   11      3.1396    
          3    5   10      1.5113    
          4    5   10     0.70162    
          5    5   10     0.30226    
          6    5   10     0.11502    
          7    5   10     0.63797E-01
          8    5   10     0.79902E-01
          9    5   10     0.94259E-01
         10    5   10     0.10089    
         11    5   10     0.10287    
         12    5   10     0.10243    
         13    5   10     0.10082    
         14    5   10     0.98665E-01
         15    5   10     0.96296E-01
         16    5   10     0.93871E-01
         17    5   10     0.91466E-01
         18    5   10     0.89118E-01
         19    5   10     0.86842E-01
         20    5   10     0.84644E-01
         21    5   10     0.82524E-01
         22    5   10     0.80481E-01
         23    5   10     0.78513E-01
         24    5   10     0.76615E-01
         25    5   10     0.74786E-01

  **  ERROR WHILE EXECUTING UNIT OPERATIONS BLOCK: "B3" (MODEL: "RADFRAC")      
                                                               (UDL03.1)        
      OUTSIDE LOOP TOLERANCE WAS SATISFIED BUT DESIGN SPEC ITERATION            
      (MIDDLE LOOP) FAILED TO CONVERGE.                                         

      RESULTS FOR MANIPULATED VARIABLES:
      VARIABLE     FINAL VALUE    LOWER BOUND    UPPER BOUND
         1          2.9416        0.50000         4.0000    

 SENSITIVITY BLOCK S-1      ROW     2 EVALUATION BEGINS                           TIME =      2.68
      VARY VARIABLES:   10.000    

      UOS BLOCK B3       MODEL: RADFRAC                                           TIME =      2.68

       Convergence iterations:
         OL   ML   IL     Err/Tol
          1    7   13      1.3133    
          2    5   10     0.68178    
          3    5   10     0.36604    
          4    5   10     0.20874    
          5    5   10     0.13101    
          6    5   10     0.93006E-01
          7    5   10     0.74372E-01
          8    5   10     0.64921E-01
          9    5   10     0.59774E-01
         10    5   10     0.56676E-01
         11    5   10     0.54580E-01
         12    5   10     0.52991E-01
         13    5   10     0.51669E-01
         14    5   10     0.50497E-01
         15    5   10     0.49414E-01
         16    5   10     0.48390E-01
         17    5   10     0.47411E-01
         18    5   10     0.46468E-01
         19    5   10     0.45556E-01
         20    5   10     0.44673E-01
         21    5    9     0.43816E-01
         22    5    9     0.42983E-01
         23    5    9     0.42175E-01
         24    5    9     0.41389E-01
         25    5    9     0.40626E-01

  **  ERROR WHILE EXECUTING UNIT OPERATIONS BLOCK: "B3" (MODEL: "RADFRAC")      
                                                               (UDL03.1)        
      OUTSIDE LOOP TOLERANCE WAS SATISFIED BUT DESIGN SPEC ITERATION            
      (MIDDLE LOOP) FAILED TO CONVERGE.                                         

      RESULTS FOR MANIPULATED VARIABLES:
      VARIABLE     FINAL VALUE    LOWER BOUND    UPPER BOUND
         1          3.9416        0.50000         4.0000    

 SENSITIVITY BLOCK S-1      ROW     3 EVALUATION BEGINS                           TIME =      2.69
      VARY VARIABLES:   11.000    

      UOS BLOCK B3       MODEL: RADFRAC                                           TIME =      2.69

       Convergence iterations:
         OL   ML   IL     Err/Tol
          1    5    9      1.2887    
          2    5   10     0.17686E-01
          3    2    2     0.88466E-02

  **  ERROR WHILE EXECUTING UNIT OPERATIONS BLOCK: "B3" (MODEL: "RADFRAC")      
                                                               (UDL03.5)        
      DESIGN SPEC IS NOT SATISFIED BECAUSE ONE OR MORE MANIPULATED              
      VARIABLE IS AT ITS BOUND.                                                 

      RESULTS FOR MANIPULATED VARIABLES:
      VARIABLE     FINAL VALUE    LOWER BOUND    UPPER BOUND
         1          4.0000        0.50000         4.0000    

 SENSITIVITY BLOCK S-1      ROW     4 EVALUATION BEGINS                           TIME =      2.69
      VARY VARIABLES:   12.000    

      UOS BLOCK B3       MODEL: RADFRAC                                           TIME =      2.69

       Convergence iterations:
         OL   ML   IL     Err/Tol
          1    4    7      1.2750    
          2    2    3     0.64341E-03

  **  ERROR WHILE EXECUTING UNIT OPERATIONS BLOCK: "B3" (MODEL: "RADFRAC")      
                                                               (UDL03.5)        
      DESIGN SPEC IS NOT SATISFIED BECAUSE ONE OR MORE MANIPULATED              
      VARIABLE IS AT ITS BOUND.                                                 

      RESULTS FOR MANIPULATED VARIABLES:
      VARIABLE     FINAL VALUE    LOWER BOUND    UPPER BOUND
         1          4.0000        0.50000         4.0000    

 SENSITIVITY BLOCK S-1      ROW     5 EVALUATION BEGINS                           TIME =      2.69
      VARY VARIABLES:   13.000    

      UOS BLOCK B3       MODEL: RADFRAC                                           TIME =      2.69

       Convergence iterations:
         OL   ML   IL     Err/Tol
          1    3    7      1.2746    
          2    2    3     0.62568E-03

  **  ERROR WHILE EXECUTING UNIT OPERATIONS BLOCK: "B3" (MODEL: "RADFRAC")      
                                                               (UDL03.5)        
      DESIGN SPEC IS NOT SATISFIED BECAUSE ONE OR MORE MANIPULATED              
      VARIABLE IS AT ITS BOUND.                                                 

      RESULTS FOR MANIPULATED VARIABLES:
      VARIABLE     FINAL VALUE    LOWER BOUND    UPPER BOUND
         1          4.0000        0.50000         4.0000    

 SENSITIVITY BLOCK S-1      ROW     6 EVALUATION BEGINS                           TIME =      2.69
      VARY VARIABLES:   14.000    

      UOS BLOCK B3       MODEL: RADFRAC                                           TIME =      2.69

       Convergence iterations:
         OL   ML   IL     Err/Tol
          1    3    6      1.2702    
          2    2    3     0.61944E-03

  **  ERROR WHILE EXECUTING UNIT OPERATIONS BLOCK: "B3" (MODEL: "RADFRAC")      
                                                               (UDL03.5)        
      DESIGN SPEC IS NOT SATISFIED BECAUSE ONE OR MORE MANIPULATED              
      VARIABLE IS AT ITS BOUND.                                                 

      RESULTS FOR MANIPULATED VARIABLES:
      VARIABLE     FINAL VALUE    LOWER BOUND    UPPER BOUND
         1          4.0000        0.50000         4.0000    

 SENSITIVITY BLOCK S-1      ROW     7 EVALUATION BEGINS                           TIME =      2.69
      VARY VARIABLES:   15.000    

      UOS BLOCK B3       MODEL: RADFRAC                                           TIME =      2.69

       Convergence iterations:
         OL   ML   IL     Err/Tol
          1    3    6      1.2704    
          2    2    3     0.61855E-03

  **  ERROR WHILE EXECUTING UNIT OPERATIONS BLOCK: "B3" (MODEL: "RADFRAC")      
                                                               (UDL03.5)        
      DESIGN SPEC IS NOT SATISFIED BECAUSE ONE OR MORE MANIPULATED              
      VARIABLE IS AT ITS BOUND.                                                 

      RESULTS FOR MANIPULATED VARIABLES:
      VARIABLE     FINAL VALUE    LOWER BOUND    UPPER BOUND
         1          4.0000        0.50000         4.0000    

 SENSITIVITY BLOCK S-1      ROW     8 EVALUATION BEGINS                           TIME =      2.70
      VARY VARIABLES:   16.000    

      UOS BLOCK B3       MODEL: RADFRAC                                           TIME =      2.70

       Convergence iterations:
         OL   ML   IL     Err/Tol
          1    3    6      1.2753    
          2    2    3     0.61636E-03

  **  ERROR WHILE EXECUTING UNIT OPERATIONS BLOCK: "B3" (MODEL: "RADFRAC")      
                                                               (UDL03.5)        
      DESIGN SPEC IS NOT SATISFIED BECAUSE ONE OR MORE MANIPULATED              
      VARIABLE IS AT ITS BOUND.                                                 

      RESULTS FOR MANIPULATED VARIABLES:
      VARIABLE     FINAL VALUE    LOWER BOUND    UPPER BOUND
         1          4.0000        0.50000         4.0000    

 SENSITIVITY BLOCK S-1      ROW     9 EVALUATION BEGINS                           TIME =      2.70
      VARY VARIABLES:   17.000    

      UOS BLOCK B3       MODEL: RADFRAC                                           TIME =      2.70

       Convergence iterations:
         OL   ML   IL     Err/Tol
          1    3    6      1.3885    
          2    2    3     0.69374E-03

  **  ERROR WHILE EXECUTING UNIT OPERATIONS BLOCK: "B3" (MODEL: "RADFRAC")      
                                                               (UDL03.5)        
      DESIGN SPEC IS NOT SATISFIED BECAUSE ONE OR MORE MANIPULATED              
      VARIABLE IS AT ITS BOUND.                                                 

      RESULTS FOR MANIPULATED VARIABLES:
      VARIABLE     FINAL VALUE    LOWER BOUND    UPPER BOUND
         1          4.0000        0.50000         4.0000    

 SENSITIVITY BLOCK S-1      ROW    10 (BASE CASE) EVALUATION BEGINS               TIME =      2.70

    SET IFINAL TO   1
      VARY VARIABLES:   15.000    

      UOS BLOCK B3       MODEL: RADFRAC                                           TIME =      2.70

       Convergence iterations:
         OL   ML   IL     Err/Tol
          1    3    6      2.4985    
          2    2    3     0.15454E-02

  **  ERROR WHILE EXECUTING UNIT OPERATIONS BLOCK: "B3" (MODEL: "RADFRAC")      
                                                               (UDL03.5)        
      DESIGN SPEC IS NOT SATISFIED BECAUSE ONE OR MORE MANIPULATED              
      VARIABLE IS AT ITS BOUND.                                                 

      RESULTS FOR MANIPULATED VARIABLES:
      VARIABLE     FINAL VALUE    LOWER BOUND    UPPER BOUND
         1          4.0000        0.50000         4.0000    

    SET IFINAL TO   0

  **  ERROR WHILE EXECUTING SENSITIVITY BLOCK: "S-1"           (SNSTVI.4)       
      SOME ROWS COMPLETED WITH ERRORS.                                          

      CALCULATOR BLOCK C-1                                                        TIME =      2.70

      UOS BLOCK B10      MODEL: HEATX                                             TIME =      2.70
      SPECIFICATION: EXCHANGER DUTY        565.51    
      FLOW TYPE:     COUNTERCURRENT  
      HOT:  TIN=  500.80  PIN=0.48000E+07   TOUT=  481.84  POUT=0.48000E+07
      COLD: TIN=  342.68  PIN=0.11882E+06   TOUT=  342.89  POUT=0.11882E+06
                              DUTY= 565.51    

      UOS BLOCK B11      MODEL: FLASH2                                            TIME =      2.70
      KODE = 1  NTRIAL =   2  T = 342.8895  P =  118824.      V = 0.744100      Q =  0.00000    

      GENERATING RESULTS FOR UOS BLOCK B10      MODEL: HEATX                      TIME =      2.70
      SPECIFICATION: EXCHANGER DUTY        565.51    
      FLOW TYPE:     COUNTERCURRENT  
      HOT:  TIN=  500.80  PIN=0.48000E+07   TOUT=  481.84  POUT=0.48000E+07
      COLD: TIN=  342.68  PIN=0.11882E+06   TOUT=  342.89  POUT=0.11882E+06
      AREA=0.44851E-02       DUTY= 565.51           FT=1.00000

      BEGIN HEATX TQ-CURVE CALCULATIONS FOR BLOCK B10     

      BEGIN COLD-TQCURVE INLET   
      KODE = 1  NTRIAL =   6  T = 342.8895  P =  118824.      V = 0.744100      Q =  0.00000    
      KODE = 1  NTRIAL =   4  T = 342.8723  P =  118824.      V = 0.708700      Q =  0.00000    
      KODE = 1  NTRIAL =   4  T = 342.8563  P =  118824.      V = 0.673295      Q =  0.00000    
      KODE = 1  NTRIAL =   4  T = 342.8415  P =  118824.      V = 0.637885      Q =  0.00000    
      KODE = 1  NTRIAL =   4  T = 342.8276  P =  118824.      V = 0.602470      Q =  0.00000    
      KODE = 1  NTRIAL =   3  T = 342.8147  P =  118824.      V = 0.567051      Q =  0.00000    
      KODE = 1  NTRIAL =   3  T = 342.8025  P =  118824.      V = 0.531628      Q =  0.00000    
      KODE = 1  NTRIAL =   3  T = 342.7911  P =  118824.      V = 0.496202      Q =  0.00000    
      KODE = 1  NTRIAL =   3  T = 342.7804  P =  118824.      V = 0.460772      Q =  0.00000    
      KODE = 1  NTRIAL =   3  T = 342.7703  P =  118824.      V = 0.425340      Q =  0.00000    
      KODE = 1  NTRIAL =   3  T = 342.7608  P =  118824.      V = 0.389905      Q =  0.00000    
      KODE = 1  NTRIAL =   3  T = 342.7517  P =  118824.      V = 0.354468      Q =  0.00000    
      KODE = 1  NTRIAL =   3  T = 342.7432  P =  118824.      V = 0.319029      Q =  0.00000    
      KODE = 1  NTRIAL =   3  T = 342.7351  P =  118824.      V = 0.283588      Q =  0.00000    
      KODE = 1  NTRIAL =   3  T = 342.7274  P =  118824.      V = 0.248144      Q =  0.00000    
      KODE = 1  NTRIAL =   3  T = 342.7201  P =  118824.      V = 0.212700      Q =  0.00000    
      KODE = 1  NTRIAL =   3  T = 342.7132  P =  118824.      V = 0.177253      Q =  0.00000    
      KODE = 1  NTRIAL =   3  T = 342.7065  P =  118824.      V = 0.141805      Q =  0.00000    
      KODE = 1  NTRIAL =   3  T = 342.7002  P =  118824.      V = 0.106356      Q =  0.00000    
      KODE = 1  NTRIAL =   3  T = 342.6942  P =  118824.      V = 7.090493E-02  Q =  0.00000    
      KODE = 1  NTRIAL =   3  T = 342.6884  P =  118824.      V = 3.545303E-02  Q =  0.00000    
      KODE = 1  NTRIAL =   3  T = 342.6829  P =  118824.      V = 1.102642E-09  Q =  0.00000    

      BEGIN HOT-TQCURVE  INLET   
      NO. TEMP ITER =    5     TEMP =  500.799    
      KODE = 1  NTRIAL =   2  T = 500.7985  P = 4.800000E+06  V =  0.00000      Q =  0.00000    
      NO. TEMP ITER =    5     TEMP =  499.913    
      KODE = 1  NTRIAL =   2  T = 499.9133  P = 4.800000E+06  V =  0.00000      Q =  0.00000    
      NO. TEMP ITER =    5     TEMP =  499.026    
      KODE = 1  NTRIAL =   2  T = 499.0263  P = 4.800000E+06  V =  0.00000      Q =  0.00000    
      NO. TEMP ITER =    5     TEMP =  498.137    
      KODE = 1  NTRIAL =   2  T = 498.1374  P = 4.800000E+06  V =  0.00000      Q =  0.00000    
      NO. TEMP ITER =    5     TEMP =  497.247    
      KODE = 1  NTRIAL =   2  T = 497.2467  P = 4.800000E+06  V =  0.00000      Q =  0.00000    
      NO. TEMP ITER =    5     TEMP =  496.354    
      KODE = 1  NTRIAL =   2  T = 496.3541  P = 4.800000E+06  V =  0.00000      Q =  0.00000    
      NO. TEMP ITER =    5     TEMP =  495.460    
      KODE = 1  NTRIAL =   2  T = 495.4598  P = 4.800000E+06  V =  0.00000      Q =  0.00000    
      NO. TEMP ITER =    5     TEMP =  494.564    
      KODE = 1  NTRIAL =   2  T = 494.5637  P = 4.800000E+06  V =  0.00000      Q =  0.00000    
      NO. TEMP ITER =    5     TEMP =  493.666    
      KODE = 1  NTRIAL =   2  T = 493.6658  P = 4.800000E+06  V =  0.00000      Q =  0.00000    
      NO. TEMP ITER =    5     TEMP =  492.766    
      KODE = 1  NTRIAL =   2  T = 492.7661  P = 4.800000E+06  V =  0.00000      Q =  0.00000    
      NO. TEMP ITER =    5     TEMP =  491.865    
      KODE = 1  NTRIAL =   2  T = 491.8647  P = 4.800000E+06  V =  0.00000      Q =  0.00000    
      NO. TEMP ITER =    6     TEMP =  490.962    
      KODE = 1  NTRIAL =   2  T = 490.9616  P = 4.800000E+06  V =  0.00000      Q =  0.00000    
      NO. TEMP ITER =    6     TEMP =  490.057    
      KODE = 1  NTRIAL =   2  T = 490.0568  P = 4.800000E+06  V =  0.00000      Q =  0.00000    
      NO. TEMP ITER =    6     TEMP =  489.150    
      KODE = 1  NTRIAL =   2  T = 489.1503  P = 4.800000E+06  V =  0.00000      Q =  0.00000    
      NO. TEMP ITER =    6     TEMP =  488.242    
      KODE = 1  NTRIAL =   2  T = 488.2420  P = 4.800000E+06  V =  0.00000      Q =  0.00000    
      NO. TEMP ITER =    6     TEMP =  487.332    
      KODE = 1  NTRIAL =   2  T = 487.3322  P = 4.800000E+06  V =  0.00000      Q =  0.00000    
      NO. TEMP ITER =    6     TEMP =  486.421    
      KODE = 1  NTRIAL =   2  T = 486.4206  P = 4.800000E+06  V =  0.00000      Q =  0.00000    
      NO. TEMP ITER =    6     TEMP =  485.507    
      KODE = 1  NTRIAL =   2  T = 485.5074  P = 4.800000E+06  V =  0.00000      Q =  0.00000    
      NO. TEMP ITER =    6     TEMP =  484.593    
      KODE = 1  NTRIAL =   2  T = 484.5926  P = 4.800000E+06  V =  0.00000      Q =  0.00000    
      NO. TEMP ITER =    6     TEMP =  483.676    
      KODE = 1  NTRIAL =   2  T = 483.6762  P = 4.800000E+06  V =  0.00000      Q =  0.00000    
      NO. TEMP ITER =    6     TEMP =  482.758    
      KODE = 1  NTRIAL =   2  T = 482.7582  P = 4.800000E+06  V =  0.00000      Q =  0.00000    
      NO. TEMP ITER =    6     TEMP =  481.839    
      KODE = 1  NTRIAL =   2  T = 481.8385  P = 4.800000E+06  V =  0.00000      Q =  0.00000    

      BEGIN COLD-TQCURVE INLET   

      BEGIN HOT-TQCURVE  INLET   
      END HEATX TQ-CURVE CALCULATIONS FOR BLOCK B10     
      STREAM S3 WILL BE FLASHED FOR PROPERTY CALCULATIONS.
      KODE = 2  NTRIAL =   3  T = 338.0238  P =  100000.      V =  1.00000      Q =-2.951087E-13
      STREAM S4 WILL BE FLASHED FOR PROPERTY CALCULATIONS.
      KODE = 3  NTRIAL =   8  T = 366.9691  P =  120000.      V =  0.00000      Q = 1.791160E-12

  *   WARNING WHILE IN SEQUENCE MONITOR                        (DSWPLO.1)       
      LOWER LIMIT OF STAGE NO.,   10, IN RR VS. NSTAGE PLOT IS LESS THAN        
      THE MINIMUM NO. OF STAGES COMPUTED.                                       
      RR VS. NSTAGE PLOT WILL START AT STAGE NO.,   12                          


*** INPUT SPECIFICATION MESSAGES ***

 CHANGES WERE MADE TO BLOCK        B1       02/15/2025   19:27:02:99 
 BLOCK B1 DSTWU
     PARAM LIGHTKEY=MEOH RECOVL=0.999 HEAVYKEY=H2O RECOVH=0.001  &
         PTOP=1. PBOT=1.2 RDV=1.0 NSTAGE=12 PLOT=YES
     PLOT LOWER=10 UPPER=30 INCR=1

 PDF updated                                                                      TIME =      3.96
 THIS COPY OF ASPEN PLUS LICENSED TO                                 


Calculations begin                                                              time      3.96


      UOS BLOCK B1       MODEL: DSTWU                                             TIME =      3.96
       TD =   338.0    ,  TB =   367.0    ,  RMIN =  0.2372    ,  RACT =   5.638    
       MIN STAGES =   11.25    , ACT STAGES =   12.00    
       ACT. # OF RECT. STAGES =   6.669    
       REBOILER DUTY =   2159.    
       FEED QUALITY =    1.014    

 SENSITIVITY BLOCK S-1      ROW     1 EVALUATION BEGINS                           TIME =      3.97
      VARY VARIABLES:   9.0000    

      UOS BLOCK B3       MODEL: RADFRAC                                           TIME =      3.97

       Convergence iterations:
         OL   ML   IL     Err/Tol
          1    3    6      6.4746    
          2    2    4     0.78700E-02

  **  ERROR WHILE EXECUTING UNIT OPERATIONS BLOCK: "B3" (MODEL: "RADFRAC")      
                                                               (UDL03.5)        
      DESIGN SPEC IS NOT SATISFIED BECAUSE ONE OR MORE MANIPULATED              
      VARIABLE IS AT ITS BOUND.                                                 

      RESULTS FOR MANIPULATED VARIABLES:
      VARIABLE     FINAL VALUE    LOWER BOUND    UPPER BOUND
         1          4.0000        0.50000         4.0000    

 SENSITIVITY BLOCK S-1      ROW     2 EVALUATION BEGINS                           TIME =      3.97
      VARY VARIABLES:   10.000    

      UOS BLOCK B3       MODEL: RADFRAC                                           TIME =      3.97

       Convergence iterations:
         OL   ML   IL     Err/Tol
          1    3    7      1.2830    
          2    2    3     0.68962E-03

  **  ERROR WHILE EXECUTING UNIT OPERATIONS BLOCK: "B3" (MODEL: "RADFRAC")      
                                                               (UDL03.5)        
      DESIGN SPEC IS NOT SATISFIED BECAUSE ONE OR MORE MANIPULATED              
      VARIABLE IS AT ITS BOUND.                                                 

      RESULTS FOR MANIPULATED VARIABLES:
      VARIABLE     FINAL VALUE    LOWER BOUND    UPPER BOUND
         1          4.0000        0.50000         4.0000    

 SENSITIVITY BLOCK S-1      ROW     3 EVALUATION BEGINS                           TIME =      3.97
      VARY VARIABLES:   11.000    

      UOS BLOCK B3       MODEL: RADFRAC                                           TIME =      3.97

       Convergence iterations:
         OL   ML   IL     Err/Tol
          1    3    7      1.2821    
          2    2    3     0.64984E-03

  **  ERROR WHILE EXECUTING UNIT OPERATIONS BLOCK: "B3" (MODEL: "RADFRAC")      
                                                               (UDL03.5)        
      DESIGN SPEC IS NOT SATISFIED BECAUSE ONE OR MORE MANIPULATED              
      VARIABLE IS AT ITS BOUND.                                                 

      RESULTS FOR MANIPULATED VARIABLES:
      VARIABLE     FINAL VALUE    LOWER BOUND    UPPER BOUND
         1          4.0000        0.50000         4.0000    

 SENSITIVITY BLOCK S-1      ROW     4 EVALUATION BEGINS                           TIME =      3.97
      VARY VARIABLES:   12.000    

      UOS BLOCK B3       MODEL: RADFRAC                                           TIME =      3.97

       Convergence iterations:
         OL   ML   IL     Err/Tol
          1    3    7      1.2750    
          2    2    3     0.64340E-03

  **  ERROR WHILE EXECUTING UNIT OPERATIONS BLOCK: "B3" (MODEL: "RADFRAC")      
                                                               (UDL03.5)        
      DESIGN SPEC IS NOT SATISFIED BECAUSE ONE OR MORE MANIPULATED              
      VARIABLE IS AT ITS BOUND.                                                 

      RESULTS FOR MANIPULATED VARIABLES:
      VARIABLE     FINAL VALUE    LOWER BOUND    UPPER BOUND
         1          4.0000        0.50000         4.0000    

 SENSITIVITY BLOCK S-1      ROW     5 EVALUATION BEGINS                           TIME =      3.97
      VARY VARIABLES:   13.000    

      UOS BLOCK B3       MODEL: RADFRAC                                           TIME =      3.97

       Convergence iterations:
         OL   ML   IL     Err/Tol
          1    3    7      1.2746    
          2    2    3     0.62568E-03

  **  ERROR WHILE EXECUTING UNIT OPERATIONS BLOCK: "B3" (MODEL: "RADFRAC")      
                                                               (UDL03.5)        
      DESIGN SPEC IS NOT SATISFIED BECAUSE ONE OR MORE MANIPULATED              
      VARIABLE IS AT ITS BOUND.                                                 

      RESULTS FOR MANIPULATED VARIABLES:
      VARIABLE     FINAL VALUE    LOWER BOUND    UPPER BOUND
         1          4.0000        0.50000         4.0000    

 SENSITIVITY BLOCK S-1      ROW     6 EVALUATION BEGINS                           TIME =      3.97
      VARY VARIABLES:   14.000    

      UOS BLOCK B3       MODEL: RADFRAC                                           TIME =      3.97

       Convergence iterations:
         OL   ML   IL     Err/Tol
          1    3    6      1.2702    
          2    2    3     0.61944E-03

  **  ERROR WHILE EXECUTING UNIT OPERATIONS BLOCK: "B3" (MODEL: "RADFRAC")      
                                                               (UDL03.5)        
      DESIGN SPEC IS NOT SATISFIED BECAUSE ONE OR MORE MANIPULATED              
      VARIABLE IS AT ITS BOUND.                                                 

      RESULTS FOR MANIPULATED VARIABLES:
      VARIABLE     FINAL VALUE    LOWER BOUND    UPPER BOUND
         1          4.0000        0.50000         4.0000    

 SENSITIVITY BLOCK S-1      ROW     7 EVALUATION BEGINS                           TIME =      3.98
      VARY VARIABLES:   15.000    

      UOS BLOCK B3       MODEL: RADFRAC                                           TIME =      3.98

       Convergence iterations:
         OL   ML   IL     Err/Tol
          1    3    6      1.2704    
          2    2    3     0.61855E-03

  **  ERROR WHILE EXECUTING UNIT OPERATIONS BLOCK: "B3" (MODEL: "RADFRAC")      
                                                               (UDL03.5)        
      DESIGN SPEC IS NOT SATISFIED BECAUSE ONE OR MORE MANIPULATED              
      VARIABLE IS AT ITS BOUND.                                                 

      RESULTS FOR MANIPULATED VARIABLES:
      VARIABLE     FINAL VALUE    LOWER BOUND    UPPER BOUND
         1          4.0000        0.50000         4.0000    

 SENSITIVITY BLOCK S-1      ROW     8 EVALUATION BEGINS                           TIME =      3.98
      VARY VARIABLES:   16.000    

      UOS BLOCK B3       MODEL: RADFRAC                                           TIME =      3.98

       Convergence iterations:
         OL   ML   IL     Err/Tol
          1    3    6      1.2753    
          2    2    3     0.61636E-03

  **  ERROR WHILE EXECUTING UNIT OPERATIONS BLOCK: "B3" (MODEL: "RADFRAC")      
                                                               (UDL03.5)        
      DESIGN SPEC IS NOT SATISFIED BECAUSE ONE OR MORE MANIPULATED              
      VARIABLE IS AT ITS BOUND.                                                 

      RESULTS FOR MANIPULATED VARIABLES:
      VARIABLE     FINAL VALUE    LOWER BOUND    UPPER BOUND
         1          4.0000        0.50000         4.0000    

 SENSITIVITY BLOCK S-1      ROW     9 EVALUATION BEGINS                           TIME =      3.98
      VARY VARIABLES:   17.000    

      UOS BLOCK B3       MODEL: RADFRAC                                           TIME =      3.98

       Convergence iterations:
         OL   ML   IL     Err/Tol
          1    3    6      1.3885    
          2    2    3     0.69374E-03

  **  ERROR WHILE EXECUTING UNIT OPERATIONS BLOCK: "B3" (MODEL: "RADFRAC")      
                                                               (UDL03.5)        
      DESIGN SPEC IS NOT SATISFIED BECAUSE ONE OR MORE MANIPULATED              
      VARIABLE IS AT ITS BOUND.                                                 

      RESULTS FOR MANIPULATED VARIABLES:
      VARIABLE     FINAL VALUE    LOWER BOUND    UPPER BOUND
         1          4.0000        0.50000         4.0000    

[...]
                                                               (UDL03.5)        
      DESIGN SPEC IS NOT SATISFIED BECAUSE ONE OR MORE MANIPULATED              
      VARIABLE IS AT ITS BOUND.                                                 

      RESULTS FOR MANIPULATED VARIABLES:
      VARIABLE     FINAL VALUE    LOWER BOUND    UPPER BOUND
         1          4.0000        0.50000         4.0000    

 SENSITIVITY BLOCK S-1      ROW     5 EVALUATION BEGINS                           TIME =     25.81
      VARY VARIABLES:   13.000    

      UOS BLOCK B3       MODEL: RADFRAC                                           TIME =     25.81

       Convergence iterations:
         OL   ML   IL     Err/Tol
          1    3    7      1.2746    
          2    2    3     0.62568E-03

  **  ERROR WHILE EXECUTING UNIT OPERATIONS BLOCK: "B3" (MODEL: "RADFRAC")      
                                                               (UDL03.5)        
      DESIGN SPEC IS NOT SATISFIED BECAUSE ONE OR MORE MANIPULATED              
      VARIABLE IS AT ITS BOUND.                                                 

      RESULTS FOR MANIPULATED VARIABLES:
      VARIABLE     FINAL VALUE    LOWER BOUND    UPPER BOUND
         1          4.0000        0.50000         4.0000    

 SENSITIVITY BLOCK S-1      ROW     6 EVALUATION BEGINS                           TIME =     25.81
      VARY VARIABLES:   14.000    

      UOS BLOCK B3       MODEL: RADFRAC                                           TIME =     25.81

       Convergence iterations:
         OL   ML   IL     Err/Tol
          1    3    6      1.2702    
          2    2    3     0.61944E-03

  **  ERROR WHILE EXECUTING UNIT OPERATIONS BLOCK: "B3" (MODEL: "RADFRAC")      
                                                               (UDL03.5)        
      DESIGN SPEC IS NOT SATISFIED BECAUSE ONE OR MORE MANIPULATED              
      VARIABLE IS AT ITS BOUND.                                                 

      RESULTS FOR MANIPULATED VARIABLES:
      VARIABLE     FINAL VALUE    LOWER BOUND    UPPER BOUND
         1          4.0000        0.50000         4.0000    

 SENSITIVITY BLOCK S-1      ROW     7 EVALUATION BEGINS                           TIME =     25.81
      VARY VARIABLES:   15.000    

      UOS BLOCK B3       MODEL: RADFRAC                                           TIME =     25.81

       Convergence iterations:
         OL   ML   IL     Err/Tol
          1    3    6      1.2704    
          2    2    3     0.61855E-03

  **  ERROR WHILE EXECUTING UNIT OPERATIONS BLOCK: "B3" (MODEL: "RADFRAC")      
                                                               (UDL03.5)        
      DESIGN SPEC IS NOT SATISFIED BECAUSE ONE OR MORE MANIPULATED              
      VARIABLE IS AT ITS BOUND.                                                 

      RESULTS FOR MANIPULATED VARIABLES:
      VARIABLE     FINAL VALUE    LOWER BOUND    UPPER BOUND
         1          4.0000        0.50000         4.0000    

 SENSITIVITY BLOCK S-1      ROW     8 EVALUATION BEGINS                           TIME =     25.81
      VARY VARIABLES:   16.000    

      UOS BLOCK B3       MODEL: RADFRAC                                           TIME =     25.81

       Convergence iterations:
         OL   ML   IL     Err/Tol
          1    3    6      1.2753    
          2    2    3     0.61636E-03

  **  ERROR WHILE EXECUTING UNIT OPERATIONS BLOCK: "B3" (MODEL: "RADFRAC")      
                                                               (UDL03.5)        
      DESIGN SPEC IS NOT SATISFIED BECAUSE ONE OR MORE MANIPULATED              
      VARIABLE IS AT ITS BOUND.                                                 

      RESULTS FOR MANIPULATED VARIABLES:
      VARIABLE     FINAL VALUE    LOWER BOUND    UPPER BOUND
         1          4.0000        0.50000         4.0000    

 SENSITIVITY BLOCK S-1      ROW     9 EVALUATION BEGINS                           TIME =     25.81
      VARY VARIABLES:   17.000    

      UOS BLOCK B3       MODEL: RADFRAC                                           TIME =     25.81

       Convergence iterations:
         OL   ML   IL     Err/Tol
          1    3    6      1.3885    
          2    2    3     0.69374E-03

  **  ERROR WHILE EXECUTING UNIT OPERATIONS BLOCK: "B3" (MODEL: "RADFRAC")      
                                                               (UDL03.5)        
      DESIGN SPEC IS NOT SATISFIED BECAUSE ONE OR MORE MANIPULATED              
      VARIABLE IS AT ITS BOUND.                                                 

      RESULTS FOR MANIPULATED VARIABLES:
      VARIABLE     FINAL VALUE    LOWER BOUND    UPPER BOUND
         1          4.0000        0.50000         4.0000    

 SENSITIVITY BLOCK S-1      ROW    10 (BASE CASE) EVALUATION BEGINS               TIME =     25.81

    SET IFINAL TO   1
      VARY VARIABLES:   15.000    

      UOS BLOCK B3       MODEL: RADFRAC                                           TIME =     25.81

       Convergence iterations:
         OL   ML   IL     Err/Tol
          1    3    6      2.4985    
          2    2    3     0.15454E-02

  **  ERROR WHILE EXECUTING UNIT OPERATIONS BLOCK: "B3" (MODEL: "RADFRAC")      
                                                               (UDL03.5)        
      DESIGN SPEC IS NOT SATISFIED BECAUSE ONE OR MORE MANIPULATED              
      VARIABLE IS AT ITS BOUND.                                                 

      RESULTS FOR MANIPULATED VARIABLES:
      VARIABLE     FINAL VALUE    LOWER BOUND    UPPER BOUND
         1          4.0000        0.50000         4.0000    

    SET IFINAL TO   0

  **  ERROR WHILE EXECUTING SENSITIVITY BLOCK: "S-1"           (SNSTVI.4)       
      SOME ROWS COMPLETED WITH ERRORS.                                          

      CALCULATOR BLOCK C-1                                                        TIME =     25.81

      UOS BLOCK B10      MODEL: HEATX                                             TIME =     25.81
      SPECIFICATION: EXCHANGER DUTY        565.51    
      FLOW TYPE:     COUNTERCURRENT  
      HOT:  TIN=  500.80  PIN=0.48000E+07   TOUT=  481.84  POUT=0.48000E+07
      COLD: TIN=  342.68  PIN=0.11882E+06   TOUT=  342.89  POUT=0.11882E+06
                              DUTY= 565.51    

      UOS BLOCK B11      MODEL: FLASH2                                            TIME =     25.82
      KODE = 1  NTRIAL =   1  T = 342.8895  P =  118824.      V = 0.744100      Q =  0.00000    

      GENERATING RESULTS FOR UOS BLOCK B10      MODEL: HEATX                      TIME =     25.82
      SPECIFICATION: EXCHANGER DUTY        565.51    
      FLOW TYPE:     COUNTERCURRENT  
      HOT:  TIN=  500.80  PIN=0.48000E+07   TOUT=  481.84  POUT=0.48000E+07
      COLD: TIN=  342.68  PIN=0.11882E+06   TOUT=  342.89  POUT=0.11882E+06
      AREA=0.44851E-02       DUTY= 565.51           FT=1.00000

      BEGIN HEATX TQ-CURVE CALCULATIONS FOR BLOCK B10     

      BEGIN COLD-TQCURVE INLET   
      KODE = 1  NTRIAL =   6  T = 342.8895  P =  118824.      V = 0.744100      Q =  0.00000    
      KODE = 1  NTRIAL =   4  T = 342.8723  P =  118824.      V = 0.708700      Q =  0.00000    
      KODE = 1  NTRIAL =   4  T = 342.8563  P =  118824.      V = 0.673295      Q =  0.00000    
      KODE = 1  NTRIAL =   4  T = 342.8415  P =  118824.      V = 0.637885      Q =  0.00000    
      KODE = 1  NTRIAL =   4  T = 342.8276  P =  118824.      V = 0.602470      Q =  0.00000    
      KODE = 1  NTRIAL =   3  T = 342.8147  P =  118824.      V = 0.567051      Q =  0.00000    
      KODE = 1  NTRIAL =   3  T = 342.8025  P =  118824.      V = 0.531628      Q =  0.00000    
      KODE = 1  NTRIAL =   3  T = 342.7911  P =  118824.      V = 0.496202      Q =  0.00000    
      KODE = 1  NTRIAL =   3  T = 342.7804  P =  118824.      V = 0.460772      Q =  0.00000    
      KODE = 1  NTRIAL =   3  T = 342.7703  P =  118824.      V = 0.425340      Q =  0.00000    
      KODE = 1  NTRIAL =   3  T = 342.7608  P =  118824.      V = 0.389905      Q =  0.00000    
      KODE = 1  NTRIAL =   3  T = 342.7517  P =  118824.      V = 0.354468      Q =  0.00000    
      KODE = 1  NTRIAL =   3  T = 342.7432  P =  118824.      V = 0.319029      Q =  0.00000    
      KODE = 1  NTRIAL =   3  T = 342.7351  P =  118824.      V = 0.283588      Q =  0.00000    
      KODE = 1  NTRIAL =   3  T = 342.7274  P =  118824.      V = 0.248144      Q =  0.00000    
      KODE = 1  NTRIAL =   3  T = 342.7201  P =  118824.      V = 0.212700      Q =  0.00000    
      KODE = 1  NTRIAL =   3  T = 342.7132  P =  118824.      V = 0.177253      Q =  0.00000    
      KODE = 1  NTRIAL =   3  T = 342.7065  P =  118824.      V = 0.141805      Q =  0.00000    
      KODE = 1  NTRIAL =   3  T = 342.7002  P =  118824.      V = 0.106356      Q =  0.00000    
      KODE = 1  NTRIAL =   3  T = 342.6942  P =  118824.      V = 7.090493E-02  Q =  0.00000    
      KODE = 1  NTRIAL =   3  T = 342.6884  P =  118824.      V = 3.545303E-02  Q =  0.00000    
      KODE = 1  NTRIAL =   3  T = 342.6829  P =  118824.      V = 1.102787E-09  Q =  0.00000    

      BEGIN HOT-TQCURVE  INLET   
      NO. TEMP ITER =    5     TEMP =  500.799    
      KODE = 1  NTRIAL =   2  T = 500.7985  P = 4.800000E+06  V =  0.00000      Q =  0.00000    
      NO. TEMP ITER =    5     TEMP =  499.913    
      KODE = 1  NTRIAL =   2  T = 499.9133  P = 4.800000E+06  V =  0.00000      Q =  0.00000    
      NO. TEMP ITER =    5     TEMP =  499.026    
      KODE = 1  NTRIAL =   2  T = 499.0263  P = 4.800000E+06  V =  0.00000      Q =  0.00000    
      NO. TEMP ITER =    5     TEMP =  498.137    
      KODE = 1  NTRIAL =   2  T = 498.1374  P = 4.800000E+06  V =  0.00000      Q =  0.00000    
      NO. TEMP ITER =    5     TEMP =  497.247    
      KODE = 1  NTRIAL =   2  T = 497.2467  P = 4.800000E+06  V =  0.00000      Q =  0.00000    
      NO. TEMP ITER =    5     TEMP =  496.354    
      KODE = 1  NTRIAL =   2  T = 496.3541  P = 4.800000E+06  V =  0.00000      Q =  0.00000    
      NO. TEMP ITER =    5     TEMP =  495.460    
      KODE = 1  NTRIAL =   2  T = 495.4598  P = 4.800000E+06  V =  0.00000      Q =  0.00000    
      NO. TEMP ITER =    5     TEMP =  494.564    
      KODE = 1  NTRIAL =   2  T = 494.5637  P = 4.800000E+06  V =  0.00000      Q =  0.00000    
      NO. TEMP ITER =    5     TEMP =  493.666    
      KODE = 1  NTRIAL =   2  T = 493.6658  P = 4.800000E+06  V =  0.00000      Q =  0.00000    
      NO. TEMP ITER =    5     TEMP =  492.766    
      KODE = 1  NTRIAL =   2  T = 492.7661  P = 4.800000E+06  V =  0.00000      Q =  0.00000    
      NO. TEMP ITER =    5     TEMP =  491.865    
      KODE = 1  NTRIAL =   2  T = 491.8647  P = 4.800000E+06  V =  0.00000      Q =  0.00000    
      NO. TEMP ITER =    6     TEMP =  490.962    
      KODE = 1  NTRIAL =   2  T = 490.9616  P = 4.800000E+06  V =  0.00000      Q =  0.00000    
      NO. TEMP ITER =    6     TEMP =  490.057    
      KODE = 1  NTRIAL =   2  T = 490.0568  P = 4.800000E+06  V =  0.00000      Q =  0.00000    
      NO. TEMP ITER =    6     TEMP =  489.150    
      KODE = 1  NTRIAL =   2  T = 489.1503  P = 4.800000E+06  V =  0.00000      Q =  0.00000    
      NO. TEMP ITER =    6     TEMP =  488.242    
      KODE = 1  NTRIAL =   2  T = 488.2420  P = 4.800000E+06  V =  0.00000      Q =  0.00000    
      NO. TEMP ITER =    6     TEMP =  487.332    
      KODE = 1  NTRIAL =   2  T = 487.3322  P = 4.800000E+06  V =  0.00000      Q =  0.00000    
      NO. TEMP ITER =    6     TEMP =  486.421    
      KODE = 1  NTRIAL =   2  T = 486.4206  P = 4.800000E+06  V =  0.00000      Q =  0.00000    
      NO. TEMP ITER =    6     TEMP =  485.507    
      KODE = 1  NTRIAL =   2  T = 485.5074  P = 4.800000E+06  V =  0.00000      Q =  0.00000    
      NO. TEMP ITER =    6     TEMP =  484.593    
      KODE = 1  NTRIAL =   2  T = 484.5926  P = 4.800000E+06  V =  0.00000      Q =  0.00000    
      NO. TEMP ITER =    6     TEMP =  483.676    
      KODE = 1  NTRIAL =   2  T = 483.6762  P = 4.800000E+06  V =  0.00000      Q =  0.00000    
      NO. TEMP ITER =    6     TEMP =  482.758    
      KODE = 1  NTRIAL =   2  T = 482.7582  P = 4.800000E+06  V =  0.00000      Q =  0.00000    
      NO. TEMP ITER =    6     TEMP =  481.839    
      KODE = 1  NTRIAL =   2  T = 481.8385  P = 4.800000E+06  V =  0.00000      Q =  0.00000    

      BEGIN COLD-TQCURVE INLET   

      BEGIN HOT-TQCURVE  INLET   
      END HEATX TQ-CURVE CALCULATIONS FOR BLOCK B10     
      STREAM S3 WILL BE FLASHED FOR PROPERTY CALCULATIONS.
      KODE = 2  NTRIAL =   3  T = 338.0238  P =  100000.      V =  1.00000      Q =-2.951087E-13
      STREAM S4 WILL BE FLASHED FOR PROPERTY CALCULATIONS.
      KODE = 3  NTRIAL =   8  T = 366.9691  P =  120000.      V =  0.00000      Q = 1.791160E-12

  *   WARNING WHILE IN SEQUENCE MONITOR                        (DSWPLO.1)       
      LOWER LIMIT OF STAGE NO.,   10, IN RR VS. NSTAGE PLOT IS LESS THAN        
      THE MINIMUM NO. OF STAGES COMPUTED.                                       
      RR VS. NSTAGE PLOT WILL START AT STAGE NO.,   12                          


*** INPUT SPECIFICATION MESSAGES ***

 FLOWSHEET    IS GENERATED BECAUSE OF OTHER CHANGES 02/15/2025   19:27:25:99 
 FLOWSHEET
     BLOCK B1 IN=S5 OUT=S3 S4
     BLOCK B3 IN=S6 OUT=S7 S8 S1
     BLOCK B4 IN=S18 OUT=S5 S6
     BLOCK B10 IN=S11 S1 OUT=S14 S2
     BLOCK B11 IN=S2 OUT=S15 S16
     BLOCK B2 IN=S9 S10 OUT=S12 S13

 CHANGES WERE MADE TO BLOCK        B3       02/15/2025   19:27:25:99 
 BLOCK B3 RADFRAC
     PARAM NSTAGE=10 ALGORITHM=STANDARD MAXOL=25 DAMPING=NONE
     PARAM2
     COL-CONFIG CONDENSER=PARTIAL-V
     FEEDS S6 5
     PRODUCTS S7 1 V / S8 10 L
     PSEUDO-STREA S1 10 PHASE=R STATE=INLET
     P-SPEC 1 1.
     COL-SPECS D:F=0.984196891 DP-COL=0.2 MOLE-RR=0.401236668
     SPEC 1 MOLE-RECOV 0.995 COMPS=MEOH STREAMS=S7  &
         BASE-STREAMS=S6 SPEC-DESCRIP="Mole recovery, 0.995"
     VARY 1 MOLE-RR 0.5 4. 0.01

 SENSITIVITY  S-1      IS GENERATED BECAUSE OF OTHER CHANGES 02/15/2025   19:27:25:99 
 SENSITIVITY S-1
     DEFINE HD BLOCK-VAR BLOCK=B3 VARIABLE=REB-DUTY  &
         SENTENCE=RESULTS UOM="WATT"
     TABULATE 1 "HD"
     VARY BLOCK-VAR BLOCK=B3 VARIABLE=STAGE SENTENCE=FEEDS  &
         ID1=S6
     RANGE OPT-LIST=RANGE LOWER="9" UPPER="17" INCR="1"

 PDF updated                                                                      TIME =     27.11
 THIS COPY OF ASPEN PLUS LICENSED TO                                 

  **  ERROR WHILE CHECKING INPUT SPECIFICATIONS                                 
      BLOCK NAME: B3    MODEL NAME: RADFRAC                    (ZUDL03.8010)    
      INITIAL GUESS OF MANIPULATED VARIABLE LIES OUTSIDE SPECIFIED              
      BOUNDS FOR "VARY-NO= 1"                                                   


*** INPUT SPECIFICATION MESSAGES ***

 FLOWSHEET    IS GENERATED BECAUSE OF OTHER CHANGES 02/15/2025   19:27:25:99 
 FLOWSHEET
     BLOCK B1 IN=S5 OUT=S3 S4
     BLOCK B3 IN=S6 OUT=S7 S8 S1
     BLOCK B4 IN=S18 OUT=S5 S6
     BLOCK B10 IN=S11 S1 OUT=S14 S2
     BLOCK B11 IN=S2 OUT=S15 S16
     BLOCK B2 IN=S9 S10 OUT=S12 S13

 CHANGES WERE MADE TO BLOCK        B3       02/15/2025   19:27:25:99 
 BLOCK B3 RADFRAC
     PARAM NSTAGE=10 ALGORITHM=STANDARD MAXOL=25 DAMPING=NONE
     PARAM2
     COL-CONFIG CONDENSER=PARTIAL-V
     FEEDS S6 6
     PRODUCTS S7 1 V / S8 10 L
     PSEUDO-STREA S1 10 PHASE=R STATE=INLET
     P-SPEC 1 1.
     COL-SPECS D:F=0.984196891 DP-COL=0.2 MOLE-RR=0.401236668
     SPEC 1 MOLE-RECOV 0.995 COMPS=MEOH STREAMS=S7  &
         BASE-STREAMS=S6 SPEC-DESCRIP="Mole recovery, 0.995"
     VARY 1 MOLE-RR 0.5 4. 0.01

 SENSITIVITY  S-1      IS GENERATED BECAUSE OF OTHER CHANGES 02/15/2025   19:27:25:99 
 SENSITIVITY S-1
     DEFINE HD BLOCK-VAR BLOCK=B3 VARIABLE=REB-DUTY  &
         SENTENCE=RESULTS UOM="WATT"
     TABULATE 1 "HD"
     VARY BLOCK-VAR BLOCK=B3 VARIABLE=STAGE SENTENCE=FEEDS  &
         ID1=S6
     RANGE OPT-LIST=RANGE LOWER="9" UPPER="17" INCR="1"

 PDF updated                                                                      TIME =     27.45
 THIS COPY OF ASPEN PLUS LICENSED TO                                 

  **  ERROR WHILE CHECKING INPUT SPECIFICATIONS                                 
      BLOCK NAME: B3    MODEL NAME: RADFRAC                    (ZUDL03.8010)    
      INITIAL GUESS OF MANIPULATED VARIABLE LIES OUTSIDE SPECIFIED              
      BOUNDS FOR "VARY-NO= 1"                                                   


*** INPUT SPECIFICATION MESSAGES ***

 FLOWSHEET    IS GENERATED BECAUSE OF OTHER CHANGES 02/15/2025   19:27:26:99 
 FLOWSHEET
     BLOCK B1 IN=S5 OUT=S3 S4
     BLOCK B3 IN=S6 OUT=S7 S8 S1
     BLOCK B4 IN=S18 OUT=S5 S6
     BLOCK B10 IN=S11 S1 OUT=S14 S2
     BLOCK B11 IN=S2 OUT=S15 S16
     BLOCK B2 IN=S9 S10 OUT=S12 S13

 CHANGES WERE MADE TO BLOCK        B3       02/15/2025   19:27:26:99 
 BLOCK B3 RADFRAC
     PARAM NSTAGE=10 ALGORITHM=STANDARD MAXOL=25 DAMPING=NONE
     PARAM2
     COL-CONFIG CONDENSER=PARTIAL-V
     FEEDS S6 7
     PRODUCTS S7 1 V / S8 10 L
     PSEUDO-STREA S1 10 PHASE=R STATE=INLET
     P-SPEC 1 1.
     COL-SPECS D:F=0.984196891 DP-COL=0.2 MOLE-RR=0.401236668
     SPEC 1 MOLE-RECOV 0.995 COMPS=MEOH STREAMS=S7  &
         BASE-STREAMS=S6 SPEC-DESCRIP="Mole recovery, 0.995"
     VARY 1 MOLE-RR 0.5 4. 0.01

 SENSITIVITY  S-1      IS GENERATED BECAUSE OF OTHER CHANGES 02/15/2025   19:27:26:99 
 SENSITIVITY S-1
     DEFINE HD BLOCK-VAR BLOCK=B3 VARIABLE=REB-DUTY  &
         SENTENCE=RESULTS UOM="WATT"
     TABULATE 1 "HD"
     VARY BLOCK-VAR BLOCK=B3 VARIABLE=STAGE SENTENCE=FEEDS  &
         ID1=S6
     RANGE OPT-LIST=RANGE LOWER="9" UPPER="17" INCR="1"

 PDF updated                                                                      TIME =     27.60
 THIS COPY OF ASPEN PLUS LICENSED TO                                 

  **  ERROR WHILE CHECKING INPUT SPECIFICATIONS                                 
      BLOCK NAME: B3    MODEL NAME: RADFRAC                    (ZUDL03.8010)    
      INITIAL GUESS OF MANIPULATED VARIABLE LIES OUTSIDE SPECIFIED              
      BOUNDS FOR "VARY-NO= 1"                                                   


*** INPUT SPECIFICATION MESSAGES ***

 FLOWSHEET    IS GENERATED BECAUSE OF OTHER CHANGES 02/15/2025   19:27:26:99 
 FLOWSHEET
     BLOCK B1 IN=S5 OUT=S3 S4
     BLOCK B3 IN=S6 OUT=S7 S8 S1
     BLOCK B4 IN=S18 OUT=S5 S6
     BLOCK B10 IN=S11 S1 OUT=S14 S2
     BLOCK B11 IN=S2 OUT=S15 S16
     BLOCK B2 IN=S9 S10 OUT=S12 S13

 CHANGES WERE MADE TO BLOCK        B3       02/15/2025   19:27:26:99 
 BLOCK B3 RADFRAC
     PARAM NSTAGE=10 ALGORITHM=STANDARD MAXOL=25 DAMPING=NONE
     PARAM2
     COL-CONFIG CONDENSER=PARTIAL-V
     FEEDS S6 8
     PRODUCTS S7 1 V / S8 10 L
     PSEUDO-STREA S1 10 PHASE=R STATE=INLET
     P-SPEC 1 1.
     COL-SPECS D:F=0.984196891 DP-COL=0.2 MOLE-RR=0.401236668
     SPEC 1 MOLE-RECOV 0.995 COMPS=MEOH STREAMS=S7  &
         BASE-STREAMS=S6 SPEC-DESCRIP="Mole recovery, 0.995"
     VARY 1 MOLE-RR 0.5 4. 0.01

 SENSITIVITY  S-1      IS GENERATED BECAUSE OF OTHER CHANGES 02/15/2025   19:27:26:99 
 SENSITIVITY S-1
     DEFINE HD BLOCK-VAR BLOCK=B3 VARIABLE=REB-DUTY  &
         SENTENCE=RESULTS UOM="WATT"
     TABULATE 1 "HD"
     VARY BLOCK-VAR BLOCK=B3 VARIABLE=STAGE SENTENCE=FEEDS  &
         ID1=S6
     RANGE OPT-LIST=RANGE LOWER="9" UPPER="17" INCR="1"

 PDF updated                                                                      TIME =     27.74
 THIS COPY OF ASPEN PLUS LICENSED TO                                 

  **  ERROR WHILE CHECKING INPUT SPECIFICATIONS                                 
      BLOCK NAME: B3    MODEL NAME: RADFRAC                    (ZUDL03.8010)    
      INITIAL GUESS OF MANIPULATED VARIABLE LIES OUTSIDE SPECIFIED              
      BOUNDS FOR "VARY-NO= 1"                                                   
